@<TRIPOS>MOLECULE
../molecules/substructure/C_AF546_rn_H_3D.pdb
 124 130 0 0 0
SMALL
GASTEIGER

@<TRIPOS>ATOM
      1 N          14.5450   -1.7920    1.5300 N.3     2  5462       -0.3209
      2 CA         13.5150   -1.7350    0.4920 C.3     2  5462        0.0700
      3 C          13.8390   -0.6170   -0.4620 C.2     2  5462        0.1377
      4 O          13.7410    0.5480   -0.1140 O.2     2  5462       -0.2994
      5 CB         12.1030   -1.5560    1.0840 C.3     2  5462        0.0162
      6 SG         11.6310   -3.0130    2.0870 S.3     2  5462       -0.1455
      7 CD          9.8200   -2.7050    2.2150 C.3     2  5462        0.0932
      8 CE1         9.0790   -2.9140    0.8700 C.3     2  5462        0.0477
      9 CE2         9.4810   -1.3000    2.6020 C.2     2  5462        0.2682
     10 CZ1         8.3930   -1.6070    0.6370 C.2     2  5462        0.2566
     11 OZ2         9.9130   -0.7230    3.6360 O.2     2  5462       -0.2710
     12 NZ3         8.5760   -0.6920    1.7040 N.am    2  5462       -0.0624
     13 OH1         7.7810   -1.3190   -0.4250 O.2     2  5462       -0.2721
     14 OH2         8.2060    0.6400    1.7440 O.3     2  5462       -0.3373
     15 CT          6.9600    1.1020    1.3050 C.2     2  5462        0.3315
     16 CI1         6.7100    2.5850    1.2850 C.3     2  5462        0.0470
     17 OI2         6.0570    0.2880    0.9700 O.2     2  5462       -0.2487
     18 CK          5.2300    2.9750    1.0960 C.3     2  5462       -0.0429
     19 CL          4.7850    2.8850   -0.3750 C.3     2  5462       -0.0511
     20 CM          3.3430    3.3870   -0.6000 C.3     2  5462       -0.0374
     21 CN          2.2680    2.5070    0.0630 C.3     2  5462        0.0116
     22 NX          2.3670    1.1240   -0.3960 N.am    2  5462       -0.3146
     23 CO          1.9480    0.0150    0.4130 C.2     2  5462        0.2232
     24 CP1         2.3690   -1.3760    0.0440 C.3     2  5462        0.0749
     25 OP2         1.2430    0.2040    1.4440 O.2     2  5462       -0.2749
     26 SR          1.0330   -2.4390   -0.6300 S.3     2  5462       -0.1129
     27 CS         -0.0770   -1.1660   -1.2870 C.ar    2  5462        0.0470
     28 C28        -1.2790   -0.8880   -0.6130 C.ar    2  5462        0.0644
     29 C29         0.1930   -0.5460   -2.5180 C.ar    2  5462        0.0748
     30 C30        -2.2420   -0.0390   -1.1940 C.ar    2  5462        0.0183
     31 Cl31       -1.6090   -1.6600    0.9480 Cl      2  5462       -0.0817
     32 Cl32        1.6650   -0.9510   -3.4040 Cl      2  5462       -0.0808
     33 C33        -0.7110    0.3890   -3.0510 C.ar    2  5462        0.0749
     34 C34        -1.9440    0.6400   -2.4020 C.ar    2  5462        0.0877
     35 C35        -3.6070    0.0200   -0.5860 C.2     2  5462        0.0058
     36 Cl36       -0.3290    1.1600   -4.5970 Cl      2  5462       -0.0811
     37 C37        -2.9180    1.5910   -2.9960 C.2     2  5462        0.3389
     38 C38        -4.0580    1.1230    0.0770 C.ar    2  5462        0.0280
     39 C39        -4.4860   -1.1840   -0.7220 C.ar    2  5462        0.0280
     40 O40        -4.2740    1.2800   -3.0420 O.3     2  5462       -0.4771
     41 O41        -2.5240    2.7050   -3.4360 O.2     2  5462       -0.2451
     42 C42        -3.2690    2.2840    0.2110 C.ar    2  5462       -0.0449
     43 C43        -5.3560    1.1240    0.6370 C.ar    2  5462        0.1621
     44 C44        -5.7360   -1.1850   -0.0850 C.ar    2  5462        0.1618
     45 C45        -4.0990   -2.3100   -1.4670 C.ar    2  5462       -0.0452
     46 C46        -3.7760    3.4510    0.8080 C.ar    2  5462       -0.0169
     47 C47        -5.8650    2.2700    1.2770 C.ar    2  5462        0.1444
     48 O48        -6.1490   -0.0280    0.5760 O.3     2  5462       -0.4509
     49 C49        -6.5690   -2.3240   -0.1260 C.ar    2  5462        0.1403
     50 C50        -4.9260   -3.4350   -1.5440 C.ar    2  5462       -0.0210
     51 C51        -5.0520    3.4110    1.4190 C.ar    2  5462        0.0899
     52 C52        -2.9300    4.7230    0.8370 C.3     2  5462       -0.0144
     53 S53        -7.5160    2.2410    1.9400 S.3     2  5462       -0.0456
     54 C54        -6.1720   -3.4420   -0.8980 C.ar    2  5462        0.0588
     55 S55        -8.0810   -2.3500    0.8040 S.3     2  5462       -0.0459
     56 C56        -4.5200   -4.6190   -2.3830 C.3     2  5462       -0.0150
     57 N57        -5.4820    4.4150    2.1290 N.2     2  5462       -0.2756
     58 C58        -3.7690    5.9460    1.2700 C.3     2  5462       -0.0216
     59 C59        -2.2920    5.0220   -0.5330 C.3     2  5462       -0.0583
     60 O60        -7.4870    1.5570    3.4740 O.co2   2  5462       -0.7200
     61 O61        -8.0800    3.6310    2.0310 O.2     2  5462       -0.1801
     62 O62        -8.4180    1.4340    1.0500 O.2     2  5462       -0.1801
     63 N63        -7.0360   -4.5810   -1.0760 N.pl3   2  5462       -0.3370
     64 O64        -8.3200   -3.8710    1.4720 O.co2   2  5462       -0.7200
     65 O65        -9.2290   -2.0070   -0.1030 O.2     2  5462       -0.1801
     66 O66        -8.0300   -1.3580    1.9340 O.2     2  5462       -0.1801
     67 C67        -5.0190   -5.9290   -1.7390 C.3     2  5462       -0.0256
     68 C68        -4.9940   -4.4330   -3.8300 C.3     2  5462       -0.0583
     69 C69        -4.7030    5.6110    2.4510 C.3     2  5462        0.0575
     70 C70        -6.5360   -5.9350   -1.3640 C.3     2  5462        0.0271
     71 C71        -3.8990    5.3570    3.7400 C.3     2  5462       -0.0400
     72 C72        -5.6760    6.7770    2.6870 C.3     2  5462       -0.0400
     73 C73        -7.3720   -6.5470   -2.5070 C.3     2  5462       -0.0440
     74 C74        -6.7410   -6.7940   -0.1030 C.3     2  5462       -0.0440
     75 HA         13.5380   -2.6840   -0.0850 H       2  5462        0.0542
     76 H1         14.4400   -2.6790    2.0730 H       2  5462        0.1189
     77 H401       -4.9450    1.9380   -3.4200 H       2  5462        0.2954
     78 HP11        2.7850   -1.8740    0.9430 H       2  5462        0.0474
     79 HP12        3.1860   -1.3300   -0.7060 H       2  5462        0.0474
     80 HX          2.7400    0.9300   -1.3520 H       2  5462        0.1487
     81 HN1         1.2620    2.8980   -0.1980 H       2  5462        0.0462
     82 HN2         2.3710    2.5560    1.1680 H       2  5462        0.0462
     83 HM1         3.1480    3.4210   -1.6940 H       2  5462        0.0280
     84 HM2         3.2470    4.4260   -0.2150 H       2  5462        0.0280
     85 HL1         5.4620    3.5210   -0.9880 H       2  5462        0.0266
     86 HL2         4.8920    1.8450   -0.7470 H       2  5462        0.0266
     87 HK1         5.1020    4.0260    1.4370 H       2  5462        0.0270
     88 HK2         4.5930    2.3340    1.7420 H       2  5462        0.0270
     89 HI11        7.0530    2.9960    2.2580 H       2  5462        0.0378
     90 HI12        7.3350    3.0520    0.4940 H       2  5462        0.0378
     91 HE11        9.7750   -3.1420    0.0330 H       2  5462        0.0375
     92 HE12        8.3250   -3.7230    0.9610 H       2  5462        0.0375
     93 HD          9.4020   -3.3950    2.9780 H       2  5462        0.0513
     94 HB1        11.3800   -1.4170    0.2550 H       2  5462        0.0396
     95 HB2        12.0750   -0.6480    1.7240 H       2  5462        0.0396
     96 H421       -2.2560    2.2990   -0.1660 H       2  5462        0.0628
     97 H711       -3.2720    4.4410    3.6440 H       2  5462        0.0253
     98 H712       -3.2370    6.2220    3.9660 H       2  5462        0.0253
     99 H713       -4.5870    5.2030    4.6010 H       2  5462        0.0253
    100 H721       -6.3740    6.5390    3.5200 H       2  5462        0.0253
    101 H722       -6.2840    6.9700    1.7790 H       2  5462        0.0253
    102 H723       -5.1210    7.7050    2.9480 H       2  5462        0.0253
    103 H581       -4.3920    6.2790    0.4080 H       2  5462        0.0294
    104 H582       -3.0960    6.7890    1.5410 H       2  5462        0.0294
    105 H521       -2.1100    4.5770    1.5710 H       2  5462        0.0348
    106 H591       -1.4670    4.3130   -0.7550 H       2  5462        0.0236
    107 H592       -3.0550    4.9620   -1.3410 H       2  5462        0.0236
    108 H593       -1.8500    6.0420   -0.5420 H       2  5462        0.0236
    109 H451       -3.1630   -2.3210   -2.0060 H       2  5462        0.0628
    110 H631       -8.0660   -4.4650   -0.9510 H       2  5462        0.1466
    111 H731       -8.4430   -6.6180   -2.2130 H       2  5462        0.0250
    112 H732       -7.3220   -5.9290   -3.4210 H       2  5462        0.0250
    113 H733       -7.0150   -7.5720   -2.7550 H       2  5462        0.0250
    114 H741       -6.3810   -7.8330   -0.2700 H       2  5462        0.0250
    115 H742       -7.8150   -6.8320    0.1780 H       2  5462        0.0250
    116 H743       -6.1820   -6.3610    0.7580 H       2  5462        0.0250
    117 H671       -4.4100   -6.0720   -0.8170 H       2  5462        0.0291
    118 H672       -4.7650   -6.7920   -2.3940 H       2  5462        0.0291
    119 H561       -3.4090   -4.6820   -2.4100 H       2  5462        0.0347
    120 H681       -6.0610   -4.1270   -3.8690 H       2  5462        0.0236
    121 H682       -4.3950   -3.6330   -4.3170 H       2  5462        0.0236
    122 H683       -4.8580   -5.3700   -4.4090 H       2  5462        0.0236
    123 HW1        14.4260   -0.9940    2.1950 H       2  5462        0.1189
    124 HW2        14.1580   -0.8470   -1.4720 H       2  5462        0.1043
@<TRIPOS>UNITY_ATOM_ATTR
60 1
charge -1
64 1
charge -1
@<TRIPOS>BOND
     1     1     2    1
     2     1    76    1
     3     1   123    1
     4     2     3    1
     5     2     5    1
     6     2    75    1
     7     3     4    2
     8     3   124    1
     9     5     6    1
    10     5    94    1
    11     5    95    1
    12     6     7    1
    13     7     8    1
    14     7     9    1
    15     7    93    1
    16     8    10    1
    17     8    91    1
    18     8    92    1
    19     9    11    2
    20     9    12   am
    21    10    12   am
    22    10    13    2
    23    12    14    1
    24    14    15    1
    25    15    16    1
    26    15    17    2
    27    16    18    1
    28    16    89    1
    29    16    90    1
    30    18    19    1
    31    18    87    1
    32    18    88    1
    33    19    20    1
    34    19    85    1
    35    19    86    1
    36    20    21    1
    37    20    83    1
    38    20    84    1
    39    21    22    1
    40    21    81    1
    41    21    82    1
    42    22    23   am
    43    22    80    1
    44    23    24    1
    45    23    25    2
    46    24    26    1
    47    24    78    1
    48    24    79    1
    49    26    27    1
    50    27    28   ar
    51    27    29   ar
    52    28    30   ar
    53    28    31    1
    54    29    32    1
    55    29    33   ar
    56    30    34   ar
    57    30    35    1
    58    33    34   ar
    59    33    36    1
    60    34    37    1
    61    35    38    2
    62    35    39    1
    63    37    40    1
    64    37    41    2
    65    38    42   ar
    66    38    43   ar
    67    39    44   ar
    68    39    45   ar
    69    40    77    1
    70    42    46   ar
    71    42    96    1
    72    43    47   ar
    73    43    48    1
    74    44    48    1
    75    44    49   ar
    76    45    50   ar
    77    45   109    1
    78    46    51   ar
    79    46    52    1
    80    47    51   ar
    81    47    53    1
    82    49    54   ar
    83    49    55    1
    84    50    54   ar
    85    50    56    1
    86    51    57    2
    87    52    58    1
    88    52    59    1
    89    52   105    1
    90    53    60    1
    91    53    61    2
    92    53    62    2
    93    54    63    1
    94    55    64    1
    95    55    65    2
    96    55    66    2
    97    56    67    1
    98    56    68    1
    99    56   119    1
   100    57    69    1
   101    58    69    1
   102    58   103    1
   103    58   104    1
   104    59   106    1
   105    59   107    1
   106    59   108    1
   107    63    70    1
   108    63   110    1
   109    67    70    1
   110    67   117    1
   111    67   118    1
   112    68   120    1
   113    68   121    1
   114    68   122    1
   115    69    71    1
   116    69    72    1
   117    70    73    1
   118    70    74    1
   119    71    97    1
   120    71    98    1
   121    71    99    1
   122    72   100    1
   123    72   101    1
   124    72   102    1
   125    73   111    1
   126    73   112    1
   127    73   113    1
   128    74   114    1
   129    74   115    1
   130    74   116    1
