@<TRIPOS>MOLECULE
Lysine_Formyl_rn_H_3D.pdb
   25    24     1     0     0
SMALL
gas


@<TRIPOS>ATOM
      1 N           -3.7980    -0.8380     0.2610 NT         2 KFO      -0.321751
      2 CA          -2.6260    -0.4900    -0.5460 CT         2 KFO       0.060483
      3 C           -2.8610     0.7990    -1.2970 C          2 KFO       0.136170
      4 O           -3.0700     1.8430    -0.6990 O          2 KFO      -0.301661
      5 CB          -1.3780    -0.4070     0.3530 CT         2 KFO      -0.031072
      6 CG          -0.0840    -0.2620    -0.4620 CT         2 KFO      -0.049917
      7 CD           1.1430    -0.2290     0.4570 CT         2 KFO      -0.037525
      8 CE           2.4350    -0.0810    -0.3530 CT         2 KFO       0.010679
      9 NZ           3.5980    -0.0870     0.5320 N          2 KFO      -0.318024
     10 CH           3.9640     1.0400     1.3360 C          2 KFO       0.198679
     11 OT           3.2890     2.1030     1.3080 O          2 KFO      -0.281531
     12 HH           4.8370     0.9810     1.9730 HA         2 KFO       0.127252
     13 HZ           4.2240    -0.9230     0.5360 H          2 KFO       0.149045
     14 HE2          2.4180     0.8590    -0.9460 H1         2 KFO       0.046662
     15 HE1          2.5190    -0.9320    -1.0640 H1         2 KFO       0.046662
     16 HD2          1.1910    -1.1710     1.0460 HC         2 KFO       0.028256
     17 HD1          1.0490     0.6230     1.1650 HC         2 KFO       0.028256
     18 HG2          0.0070    -1.1190    -1.1650 HC         2 KFO       0.026784
     19 HG1         -0.1190     0.6790    -1.0540 HC         2 KFO       0.026784
     20 HB2         -1.3160    -1.3380     0.9580 HC         2 KFO       0.028694
     21 HB1         -1.4770     0.4490     1.0570 HC         2 KFO       0.028694
     22 HA          -2.4680    -1.3020    -1.2900 H1         2 KFO       0.054207
     23 H           -4.6240    -0.9400    -0.3730 H          2 KFO       0.119072
     24 HW1         -4.0080    -0.0580     0.9270 H          2 KFO       0.119072
     25 HW2         -2.8430     0.8010    -2.3820 HA         2 KFO       0.106031
@<TRIPOS>BOND
     1     1     2 1   
     2     1    23 1   
     3     1    24 1   
     4     2     3 1   
     5     2     5 1   
     6     2    22 1   
     7     3     4 2   
     8     3    25 1   
     9     5     6 1   
    10     5    20 1   
    11     5    21 1   
    12     6     7 1   
    13     6    18 1   
    14     6    19 1   
    15     7     8 1   
    16     7    16 1   
    17     7    17 1   
    18     8     9 1   
    19     8    14 1   
    20     8    15 1   
    21     9    10 1   
    22     9    13 1   
    23    10    11 2   
    24    10    12 1   
@<TRIPOS>SUBSTRUCTURE
     1 KFO         1 TEMP              0 ****  ****    0 ROOT
