@<TRIPOS>MOLECULE
Lysine_ACC_rn_H_3D.pdb
   28    27     1     0     0
SMALL
gas


@<TRIPOS>ATOM
      1 N           -4.1760     0.2430     0.6640 NT         2 KAC      -0.321751
      2 CA          -2.8380     0.3410     0.0740 CT         2 KAC       0.060483
      3 C           -2.0910     1.4640     0.7430 C          2 KAC       0.136170
      4 O           -1.8620     1.4350     1.9420 O          2 KAC      -0.301661
      5 CB          -2.0810    -1.0070     0.1880 CT         2 KAC      -0.031072
      6 CG          -1.0070    -1.2190    -0.8980 CT         2 KAC      -0.049917
      7 CD           0.2030    -0.2730    -0.8250 CT         2 KAC      -0.037515
      8 CE           1.0280    -0.4530     0.4570 CT         2 KAC       0.010925
      9 NZ           2.2340     0.3700     0.4060 N          2 KAC      -0.315677
     10 CH           3.3790     0.0170    -0.3810 C          2 KAC       0.208496
     11 OT2          3.3960    -1.0600    -1.0370 O          2 KAC      -0.278082
     12 CT1          4.5800     0.9050    -0.3920 CT         2 KAC       0.012682
     13 HT13         4.2640     1.9610    -0.5230 HC         2 KAC       0.032805
     14 HT12         5.2610     0.6300    -1.2250 HC         2 KAC       0.032805
     15 HT11         5.1230     0.8040     0.5710 HC         2 KAC       0.032805
     16 HZ           2.2820     1.2210     1.0110 H          2 KAC       0.149311
     17 HE2          0.4250    -0.1410     1.3340 H1         2 KAC       0.046672
     18 HE1          1.3070    -1.5200     0.5960 H1         2 KAC       0.046672
     19 HD2          0.8510    -0.4910    -1.7010 HC         2 KAC       0.028256
     20 HD1         -0.1190     0.7830    -0.9250 HC         2 KAC       0.028256
     21 HG2         -0.6410    -2.2670    -0.8320 HC         2 KAC       0.026784
     22 HG1         -1.4810    -1.1110    -1.8980 HC         2 KAC       0.026784
     23 HB2         -2.8160    -1.8330     0.0640 HC         2 KAC       0.028694
     24 HB1         -1.6500    -1.1390     1.2030 HC         2 KAC       0.028694
     25 HA          -2.9580     0.6030    -1.0010 H1         2 KAC       0.054207
     26 H           -4.1030    -0.1640     1.6260 H          2 KAC       0.119072
     27 HW1         -4.7490    -0.4160     0.0890 H          2 KAC       0.119072
     28 HW2         -1.7600     2.3160     0.1580 HA         2 KAC       0.106031
@<TRIPOS>BOND
     1     1     2 1   
     2     1    26 1   
     3     1    27 1   
     4     2     3 1   
     5     2     5 1   
     6     2    25 1   
     7     3     4 2   
     8     3    28 1   
     9     5     6 1   
    10     5    23 1   
    11     5    24 1   
    12     6     7 1   
    13     6    21 1   
    14     6    22 1   
    15     7     8 1   
    16     7    19 1   
    17     7    20 1   
    18     8     9 1   
    19     8    17 1   
    20     8    18 1   
    21     9    10 1   
    22     9    16 1   
    23    10    11 2   
    24    10    12 1   
    25    12    13 1   
    26    12    14 1   
    27    12    15 1   
@<TRIPOS>SUBSTRUCTURE
     1 KAC         1 TEMP              0 ****  ****    0 ROOT
