@<TRIPOS>MOLECULE
../molecules/substructure/C_AF546_rn_H_3D.pdb
  124   130     1     0     0
SMALL
No Charge or Current Charge


@<TRIPOS>ATOM
      1 N           14.0200    -0.0670    -1.3860 n8         2 546      -0.320900
      2 CA          12.8110     0.2320    -0.6140 c3         2 546       0.070000
      3 C           12.8950     1.6340    -0.0580 c          2 546       0.137700
      4 O           11.9780     2.0880     0.6150 o          2 546      -0.299400
      5 CB          12.6440    -0.7710     0.5480 c3         2 546       0.016200
      6 SG          12.6160    -2.5340    -0.0030 ss         2 546      -0.145500
      7 CD          10.8040    -2.8040    -0.2240 c5         2 546       0.093200
      8 CE1          9.9710    -2.5790     1.0620 c5         2 546       0.047700
      9 CE2         10.2110    -1.8540    -1.2120 c          2 546       0.268200
     10 CZ1          9.0810    -1.4310     0.7010 c          2 546       0.256600
     11 OZ2         10.4630    -1.8700    -2.4440 o          2 546      -0.271000
     12 NZ3          9.2620    -0.9810    -0.6330 n          2 546      -0.062400
     13 OH1          8.2070    -0.9610     1.4750 o          2 546      -0.272100
     14 OH2          8.3540    -0.2480    -1.3640 os         2 546      -0.337300
     15 CT           7.7940     0.9390    -0.8890 c          2 546       0.331500
     16 CI1          6.5780     1.4780    -1.5830 c3         2 546       0.047000
     17 OI2          8.3380     1.5640     0.0610 o          2 546      -0.248700
     18 CK           6.0530     2.8320    -1.0630 c3         2 546      -0.042900
     19 C19          5.5910     2.8630     0.4100 c3         2 546      -0.051100
     20 C20          4.6130     1.7520     0.8180 c3         2 546      -0.037400
     21 C21          3.3070     1.7670     0.0060 c3         2 546       0.011600
     22 N22          2.2950     0.9300     0.6480 ns         2 546      -0.314600
     23 C23          2.4230    -0.4950     0.7620 c          2 546       0.223200
     24 C24          1.3880    -1.2870     1.4970 c3         2 546       0.074800
     25 O25          3.4060    -1.0910     0.2440 o          2 546      -0.274900
     26 S26          0.6540    -2.5490     0.4040 ss         2 546      -0.115900
     27 C27         -0.3650    -1.3850    -0.5050 ca         2 546       0.009000
     28 C28         -1.6740    -1.1350    -0.0900 ca         2 546      -0.039800
     29 C29          0.1330    -0.7520    -1.6460 ca         2 546      -0.047500
     30 C30         -2.5010    -0.2600    -0.8120 ca         2 546      -0.001500
     31 C31         -0.6700     0.1380    -2.3630 ca         2 546      -0.046100
     32 C32         -1.9980     0.3940    -1.9690 ca         2 546       0.066600
     33 C33         -3.8950    -0.0870    -0.3330 cc         2 546       0.004400
     34 C34         -2.8140     1.3380    -2.7840 c          2 546       0.337400
     35 C35         -4.2630     1.0010     0.3980 ca         2 546       0.027900
     36 C36         -4.8860    -1.1550    -0.6470 ca         2 546       0.027900
     37 O37         -4.2000     1.3950    -2.6520 oh         2 546      -0.477100
     38 O38         -2.2510     2.0940    -3.6250 o          2 546      -0.245100
     39 C39         -3.3430     2.0150     0.7250 ca         2 546      -0.044900
     40 C40         -5.5920     1.1190     0.8650 ca         2 546       0.162100
     41 C41         -6.1910    -1.0280    -0.1560 ca         2 546       0.161800
     42 C42         -4.5510    -2.2790    -1.4190 ca         2 546      -0.045200
     43 C43         -3.7240     3.1250     1.4900 ca         2 546      -0.016900
     44 C44         -5.9960     2.2440     1.6140 ca         2 546       0.144400
     45 O45         -6.5190     0.1080     0.5860 os         2 546      -0.450900
     46 C46         -7.1590    -2.0220    -0.4150 ca         2 546       0.140300
     47 C47         -5.4930    -3.2770    -1.6960 ca         2 546      -0.021000
     48 C48         -5.0490     3.2330     1.9530 ca         2 546       0.089900
     49 C49         -2.6810     4.1540     1.8550 c6         2 546      -0.014400
     50 S50         -7.6910     2.3630     2.1360 s6         2 546      -0.045600
     51 C51         -6.8130    -3.1330    -1.2240 ca         2 546       0.058800
     52 S52         -8.7810    -1.8920     0.3020 s6         2 546      -0.045900
     53 C53         -5.0580    -4.4770    -2.5230 c6         2 546      -0.015000
     54 N54         -5.4250     4.2530     2.6710 n2         2 546      -0.275600
     55 C55         -3.3160     5.5070     2.2530 c6         2 546      -0.021600
     56 C56         -1.7230     3.5920     2.9160 c3         2 546      -0.058300
     57 O57         -7.9300     1.3580     3.4620 o          2 546      -0.720000
     58 O58         -8.0510     3.7730     2.5160 o          2 546      -0.180100
     59 O59         -8.6000     1.9370     1.0160 o          2 546      -0.180100
     60 N60         -7.8070    -4.0920    -1.6180 nu         2 546      -0.337000
     61 O61         -9.8430    -1.2730    -0.8460 o          2 546      -0.720000
     62 O62         -9.2530    -3.2480     0.7490 o          2 546      -0.180100
     63 O63         -8.7690    -0.9920     1.5050 o          2 546      -0.180100
     64 C64         -6.2380    -5.3370    -3.0340 c6         2 546      -0.025600
     65 C65         -4.0050    -5.3180    -1.7780 c3         2 546      -0.058300
     66 C66         -4.6050     5.3830     3.1070 c6         2 546       0.057500
     67 C67         -7.4320    -5.4410    -2.0550 c6         2 546       0.027100
     68 C68         -4.2860     5.2400     4.6050 c3         2 546      -0.040000
     69 C69         -5.4490     6.6570     2.9200 c3         2 546      -0.040000
     70 C70         -7.1000    -6.2950    -0.8130 c3         2 546      -0.044000
     71 C71         -8.6200    -6.0950    -2.7910 c3         2 546      -0.044000
     72 HA          11.9210     0.1900    -1.2820 h1         2 546       0.054200
     73 H           14.1370     0.6720    -2.1190 hn         2 546       0.118900
     74 H371        -4.7420     2.0590    -3.1880 ho         2 546       0.295400
     75 H281        -2.0590    -1.6390     0.7880 ha         2 546       0.063500
     76 H241         0.5950    -0.6230     1.9100 h1         2 546       0.047400
     77 H242         1.8710    -1.7960     2.3560 h1         2 546       0.047400
     78 H221         1.4300     1.3950     1.0090 hn         2 546       0.148700
     79 H211         2.9240     2.8120    -0.0560 h1         2 546       0.046200
     80 H212         3.4850     1.4050    -1.0290 h1         2 546       0.046200
     81 H201         5.1110     0.7650     0.7300 hc         2 546       0.028000
     82 H202         4.3660     1.9010     1.8940 hc         2 546       0.028000
     83 H191         5.1120     3.8500     0.5990 hc         2 546       0.026600
     84 H192         6.4750     2.8150     1.0790 hc         2 546       0.026600
     85 HK1          6.8450     3.6000    -1.2010 hc         2 546       0.027000
     86 HK2          5.1990     3.1430    -1.7040 hc         2 546       0.027000
     87 HI11         5.7740     0.7200    -1.5500 hc         2 546       0.037800
     88 HI12         6.8410     1.6150    -2.6530 hc         2 546       0.037800
     89 HE11         9.3510    -3.4760     1.2710 hc         2 546       0.037500
     90 HE12        10.6010    -2.3460     1.9460 hc         2 546       0.037500
     91 HD          10.6550    -3.8420    -0.5980 h1         2 546       0.051300
     92 HB1         13.5090    -0.6580     1.2340 h1         2 546       0.039600
     93 HB2         11.7340    -0.5220     1.1320 h1         2 546       0.039600
     94 H291         1.1410    -0.9490    -1.9820 ha         2 546       0.062900
     95 H311        -0.2500     0.6110    -3.2420 ha         2 546       0.062600
     96 H391        -2.3120     1.9630     0.3970 ha         2 546       0.062800
     97 H681        -3.4660     4.5220     4.7910 hc         2 546       0.025300
     98 H682        -5.1800     4.8720     5.1580 hc         2 546       0.025300
     99 H683        -3.9780     6.2140     5.0430 hc         2 546       0.025300
    100 H691        -4.8440     7.5660     3.1290 hc         2 546       0.025300
    101 H692        -6.3300     6.6430     3.5970 hc         2 546       0.025300
    102 H693        -5.8230     6.7170     1.8750 hc         2 546       0.025300
    103 H551        -2.5670     6.1530     2.7640 hc         2 546       0.029400
    104 H552        -3.5650     6.0260     1.2980 hc         2 546       0.029400
    105 H491        -2.0600     4.3580     0.9540 hc         2 546       0.034800
    106 H561        -2.2690     3.0420     3.7100 hc         2 546       0.023600
    107 H562        -1.0260     2.8680     2.4410 hc         2 546       0.023600
    108 H563        -1.1060     4.3980     3.3700 hc         2 546       0.023600
    109 H421        -3.5520    -2.3780    -1.8180 ha         2 546       0.062800
    110 H601        -8.8000    -3.7830    -1.7160 hn         2 546       0.146600
    111 H701        -6.5840    -7.2330    -1.1060 hc         2 546       0.025000
    112 H702        -8.0270    -6.5610    -0.2620 hc         2 546       0.025000
    113 H703        -6.4620    -5.7320    -0.0970 hc         2 546       0.025000
    114 H711        -8.9130    -5.4860    -3.6730 hc         2 546       0.025000
    115 H712        -8.3480    -7.1150    -3.1400 hc         2 546       0.025000
    116 H713        -9.5050    -6.1700    -2.1230 hc         2 546       0.025000
    117 H641        -6.6050    -4.8620    -3.9730 hc         2 546       0.029100
    118 H642        -5.8930    -6.3500    -3.3230 hc         2 546       0.029100
    119 H531        -4.5480    -4.0810    -3.4300 hc         2 546       0.034700
    120 H651        -4.3670    -5.6590    -0.7940 hc         2 546       0.023600
    121 H652        -3.0830    -4.7250    -1.6160 hc         2 546       0.023600
    122 H653        -3.7190    -6.2060    -2.3840 hc         2 546       0.023600
    123 HW1         13.8590    -0.9520    -1.9230 hn         2 546       0.118900
    124 HW2         13.7710     2.2480    -0.2400 h4         2 546       0.104300
@<TRIPOS>BOND
     1     1     2 1   
     2     1    73 1   
     3     1   123 1   
     4     2     3 1   
     5     2     5 1   
     6     2    72 1   
     7     3     4 2   
     8     3   124 1   
     9     5     6 1   
    10     5    92 1   
    11     5    93 1   
    12     6     7 1   
    13     7     8 1   
    14     7     9 1   
    15     7    91 1   
    16     8    10 1   
    17     8    89 1   
    18     8    90 1   
    19     9    11 2   
    20     9    12 1   
    21    10    12 1   
    22    10    13 2   
    23    12    14 1   
    24    14    15 1   
    25    15    16 1   
    26    15    17 2   
    27    16    18 1   
    28    16    87 1   
    29    16    88 1   
    30    18    19 1   
    31    18    85 1   
    32    18    86 1   
    33    19    20 1   
    34    19    83 1   
    35    19    84 1   
    36    20    21 1   
    37    20    81 1   
    38    20    82 1   
    39    21    22 1   
    40    21    79 1   
    41    21    80 1   
    42    22    23 1   
    43    22    78 1   
    44    23    24 1   
    45    23    25 2   
    46    24    26 1   
    47    24    76 1   
    48    24    77 1   
    49    26    27 1   
    50    27    28 ar  
    51    27    29 ar  
    52    28    30 ar  
    53    28    75 1   
    54    29    31 ar  
    55    29    94 1   
    56    30    32 ar  
    57    30    33 1   
    58    31    32 ar  
    59    31    95 1   
    60    32    34 1   
    61    33    35 2   
    62    33    36 1   
    63    34    37 1   
    64    34    38 2   
    65    35    39 ar  
    66    35    40 ar  
    67    36    41 ar  
    68    36    42 ar  
    69    37    74 1   
    70    39    43 ar  
    71    39    96 1   
    72    40    44 ar  
    73    40    45 1   
    74    41    45 1   
    75    41    46 ar  
    76    42    47 ar  
    77    42   109 1   
    78    43    48 ar  
    79    43    49 1   
    80    44    48 ar  
    81    44    50 1   
    82    46    51 ar  
    83    46    52 1   
    84    47    51 ar  
    85    47    53 1   
    86    48    54 2   
    87    49    55 1   
    88    49    56 1   
    89    49   105 1   
    90    50    57 1   
    91    50    58 1   
    92    50    59 1   
    93    51    60 1   
    94    52    61 1   
    95    52    62 1   
    96    52    63 1   
    97    53    64 1   
    98    53    65 1   
    99    53   119 1   
   100    54    66 1   
   101    55    66 1   
   102    55   103 1   
   103    55   104 1   
   104    56   106 1   
   105    56   107 1   
   106    56   108 1   
   107    60    67 1   
   108    60   110 1   
   109    64    67 1   
   110    64   117 1   
   111    64   118 1   
   112    65   120 1   
   113    65   121 1   
   114    65   122 1   
   115    66    68 1   
   116    66    69 1   
   117    67    70 1   
   118    67    71 1   
   119    68    97 1   
   120    68    98 1   
   121    68    99 1   
   122    69   100 1   
   123    69   101 1   
   124    69   102 1   
   125    70   111 1   
   126    70   112 1   
   127    70   113 1   
   128    71   114 1   
   129    71   115 1   
   130    71   116 1   
@<TRIPOS>SUBSTRUCTURE
     1 546         1 TEMP              0 ****  ****    0 ROOT
