@<TRIPOS>MOLECULE
*****
 27 26 0 0 0
SMALL
GASTEIGER

@<TRIPOS>ATOM
      1 N1          0.9931   -0.0011    0.0235 N.3     1  <1>        -0.3215
      2 C1          0.4702    1.0159    0.9348 C.3     1  <1>         0.0609
      3 C2          0.9438    2.4016    0.5503 C.2     1  <1>         0.1369
      4 O1          0.1817    3.3524    0.3671 O.2     1  <1>        -0.2994
      5 H1          2.0362    2.5389    0.5288 H       1  <1>         0.1043
      6 C3         -1.0627    0.9307    0.9426 C.3     1  <1>        -0.0310
      7 C4         -1.5623   -0.4460    1.3911 C.3     1  <1>        -0.0465
      8 C5         -1.0738   -0.7919    2.8034 C.3     1  <1>        -0.0125
      9 C6         -1.5791    0.1978    3.8529 C.3     1  <1>        -0.0339
     10 N2         -3.0744    0.2080    3.8684 N.4     1  <1>         0.2248
     11 C7         -3.6688   -1.1062    4.2378 C.3     1  <1>        -0.0449
     12 H2         -3.2825   -1.3775    5.2220 H       1  <1>         0.0777
     13 H3         -4.7517   -0.9952    4.2420 H       1  <1>         0.0777
     14 H4         -3.3869   -1.8483    3.4874 H       1  <1>         0.0777
     15 H5         -3.4012    0.9292    4.5255 H       1  <1>         0.2011
     16 H6         -3.4392    0.5093    2.9532 H       1  <1>         0.2011
     17 H7         -1.2371   -0.0604    4.8588 H       1  <1>         0.0814
     18 H8         -1.2591    1.2250    3.6490 H       1  <1>         0.0814
     19 H9         -1.3752   -1.8148    3.0491 H       1  <1>         0.0317
     20 H10         0.0194   -0.8285    2.8401 H       1  <1>         0.0317
     21 H11        -2.6569   -0.4670    1.3354 H       1  <1>         0.0268
     22 H12        -1.2303   -1.2209    0.6911 H       1  <1>         0.0268
     23 H13        -1.4752    1.7110    1.5951 H       1  <1>         0.0284
     24 H14        -1.4673    1.1567   -0.0519 H       1  <1>         0.0284
     25 H15         0.8738    0.8382    1.9375 H       1  <1>         0.0534
     26 H16         0.6604    0.1740   -0.9270 H       1  <1>         0.1188
     27 H17         2.0107   -0.0024   -0.0101 H       1  <1>         0.1188
@<TRIPOS>UNITY_ATOM_ATTR
10 1
charge 1
@<TRIPOS>BOND
     1     1     2    1
     2     2     3    1
     3     3     4    2
     4     3     5    1
     5     2     6    1
     6     6     7    1
     7     7     8    1
     8     8     9    1
     9     9    10    1
    10    10    11    1
    11    11    12    1
    12    11    13    1
    13    11    14    1
    14    10    15    1
    15    10    16    1
    16     9    17    1
    17     9    18    1
    18     8    19    1
    19     8    20    1
    20     7    21    1
    21     7    22    1
    22     6    23    1
    23     6    24    1
    24     2    25    1
    25     1    26    1
    26     1    27    1
