@<TRIPOS>MOLECULE
../molecules/substructure/Lysine_lac_rn_H_3D.pdb
 32 31 0 0 0
SMALL
GASTEIGER

@<TRIPOS>ATOM
      1 N          -4.4190    0.6700   -0.6110 N.3     2  KLA2       -0.3215
      2 CA         -3.8140    1.1560    0.6330 C.3     2  KLA2        0.0609
      3 C          -4.7220    0.8450    1.7950 C.2     2  KLA2        0.1369
      4 O          -5.0340   -0.3070    2.0520 O.2     2  KLA2       -0.2994
      5 CB         -2.4330    0.5080    0.8620 C.3     2  KLA2       -0.0311
      6 CG         -1.3890    0.9660   -0.1700 C.3     2  KLA2       -0.0499
      7 CD          0.0400    0.5440    0.2070 C.3     2  KLA2       -0.0373
      8 CE          0.2590   -0.9700    0.0840 C.3     2  KLA2        0.0117
      9 NZ          1.6600   -1.3030    0.3360 N.am    2  KLA2       -0.3132
     10 CH          2.6900   -1.0910   -0.6410 C.2     2  KLA2        0.2414
     11 OT1         2.4040   -0.5990   -1.7660 O.2     2  KLA2       -0.2730
     12 CT2         4.1250   -1.4130   -0.3090 C.3     2  KLA2        0.1281
     13 OI1         4.7480   -2.0800   -1.3780 O.3     2  KLA2       -0.3828
     14 CI2         4.8930   -0.1420    0.0660 C.3     2  KLA2       -0.0303
     15 H          -5.3870    1.0600   -0.6840 H       2  KLA2        0.1188
     16 HA         -3.6950    2.2620    0.5790 H       2  KLA2        0.0534
     17 HB1        -2.5380   -0.5980    0.8190 H       2  KLA2        0.0284
     18 HB2        -2.0750    0.7820    1.8780 H       2  KLA2        0.0284
     19 HG1        -1.6370    0.5560   -1.1720 H       2  KLA2        0.0266
     20 HG2        -1.4100    2.0750   -0.2430 H       2  KLA2        0.0266
     21 HD1         0.2730    0.8720    1.2440 H       2  KLA2        0.0280
     22 HD2         0.7440    1.0700   -0.4720 H       2  KLA2        0.0280
     23 HE1        -0.0350   -1.3270   -0.9270 H       2  KLA2        0.0462
     24 HE2        -0.3720   -1.4980    0.8300 H       2  KLA2        0.0462
     25 HZ          1.9060   -1.7490    1.2480 H       2  KLA2        0.1488
     26 HT2         4.1470   -2.0960    0.5670 H       2  KLA2        0.0687
     27 HI1         4.8150   -1.4450   -2.1390 H       2  KLA2        0.2104
     28 HI21        4.4260    0.3380    0.9530 H       2  KLA2        0.0259
     29 HI22        5.9440   -0.3990    0.3160 H       2  KLA2        0.0259
     30 HI23        4.8910    0.5790   -0.7790 H       2  KLA2        0.0259
     31 HW1        -3.8960    1.0820   -1.4160 H       2  KLA2        0.1188
     32 HW2        -5.1080    1.6520    2.4090 H       2  KLA2        0.1043
@<TRIPOS>BOND
     1     1     2    1
     2     1    15    1
     3     1    31    1
     4     2     3    1
     5     2     5    1
     6     2    16    1
     7     3     4    2
     8     3    32    1
     9     5     6    1
    10     5    17    1
    11     5    18    1
    12     6     7    1
    13     6    19    1
    14     6    20    1
    15     7     8    1
    16     7    21    1
    17     7    22    1
    18     8     9    1
    19     8    23    1
    20     8    24    1
    21     9    10   am
    22     9    25    1
    23    10    11    2
    24    10    12    1
    25    12    13    1
    26    12    14    1
    27    12    26    1
    28    13    27    1
    29    14    28    1
    30    14    29    1
    31    14    30    1
