@<TRIPOS>MOLECULE
../molecules/substructure/Lysine_lac_rn_H_3D.pdb
   32    31     1     0     0
SMALL
No Charge or Current Charge


@<TRIPOS>ATOM
      1 N           -4.4190     0.6700    -0.6110 NT         2 KLA      -0.321500
      2 CA          -3.8140     1.1560     0.6330 CT         2 KLA       0.060900
      3 C           -4.7220     0.8450     1.7950 C          2 KLA       0.136900
      4 O           -5.0340    -0.3070     2.0520 O          2 KLA      -0.299400
      5 CB          -2.4330     0.5080     0.8620 CT         2 KLA      -0.031100
      6 CG          -1.3890     0.9660    -0.1700 CT         2 KLA      -0.049900
      7 CD           0.0400     0.5440     0.2070 CT         2 KLA      -0.037300
      8 CE           0.2590    -0.9700     0.0840 CT         2 KLA       0.011700
      9 NZ           1.6600    -1.3030     0.3360 N          2 KLA      -0.313200
     10 CH           2.6900    -1.0910    -0.6410 C          2 KLA       0.241400
     11 OT1          2.4040    -0.5990    -1.7660 O          2 KLA      -0.273000
     12 CT2          4.1250    -1.4130    -0.3090 CT         2 KLA       0.128100
     13 OI1          4.7480    -2.0800    -1.3780 OH         2 KLA      -0.382800
     14 CI2          4.8930    -0.1420     0.0660 CT         2 KLA      -0.030300
     15 H           -5.3870     1.0600    -0.6840 H          2 KLA       0.118800
     16 HA          -3.6950     2.2620     0.5790 H1         2 KLA       0.053400
     17 HB1         -2.5380    -0.5980     0.8190 HC         2 KLA       0.028400
     18 HB2         -2.0750     0.7820     1.8780 HC         2 KLA       0.028400
     19 HG1         -1.6370     0.5560    -1.1720 HC         2 KLA       0.026600
     20 HG2         -1.4100     2.0750    -0.2430 HC         2 KLA       0.026600
     21 HD1          0.2730     0.8720     1.2440 HC         2 KLA       0.028000
     22 HD2          0.7440     1.0700    -0.4720 HC         2 KLA       0.028000
     23 HE1         -0.0350    -1.3270    -0.9270 H1         2 KLA       0.046200
     24 HE2         -0.3720    -1.4980     0.8300 H1         2 KLA       0.046200
     25 HZ           1.9060    -1.7490     1.2480 H          2 KLA       0.148800
     26 HT2          4.1470    -2.0960     0.5670 H1         2 KLA       0.068700
     27 HI1          4.8150    -1.4450    -2.1390 HO         2 KLA       0.210400
     28 HI21         4.4260     0.3380     0.9530 HC         2 KLA       0.025900
     29 HI22         5.9440    -0.3990     0.3160 HC         2 KLA       0.025900
     30 HI23         4.8910     0.5790    -0.7790 HC         2 KLA       0.025900
     31 HW1         -3.8960     1.0820    -1.4160 H          2 KLA       0.118800
     32 HW2         -5.1080     1.6520     2.4090 HA         2 KLA       0.104300
@<TRIPOS>BOND
     1     1     2 1   
     2     1    15 1   
     3     1    31 1   
     4     2     3 1   
     5     2     5 1   
     6     2    16 1   
     7     3     4 2   
     8     3    32 1   
     9     5     6 1   
    10     5    17 1   
    11     5    18 1   
    12     6     7 1   
    13     6    19 1   
    14     6    20 1   
    15     7     8 1   
    16     7    21 1   
    17     7    22 1   
    18     8     9 1   
    19     8    23 1   
    20     8    24 1   
    21     9    10 1   
    22     9    25 1   
    23    10    11 2   
    24    10    12 1   
    25    12    13 1   
    26    12    14 1   
    27    12    26 1   
    28    13    27 1   
    29    14    28 1   
    30    14    29 1   
    31    14    30 1   
@<TRIPOS>SUBSTRUCTURE
     1 KLA         1 TEMP              0 ****  ****    0 ROOT
