@<TRIPOS>MOLECULE
Lysine_2M_rn_H_3D.pdb
 30 29 0 0 0
SMALL
GASTEIGER

@<TRIPOS>ATOM
      1 N           3.3430    0.0710    0.8310 N.3     2  K2M2       -0.3215
      2 CA          2.5310   -0.2920   -0.3340 C.3     2  K2M2        0.0609
      3 C           3.3920   -0.8980   -1.4140 C.2     2  K2M2        0.1369
      4 O           2.8800   -1.3830   -2.4110 O.2     2  K2M2       -0.2994
      5 CB          1.7840    0.9440   -0.8770 C.3     2  K2M2       -0.0310
      6 CG          0.9150    1.6670    0.1720 C.3     2  K2M2       -0.0465
      7 CD         -0.1720    0.8000    0.8360 C.3     2  K2M2       -0.0125
      8 CE         -1.2050    0.2530   -0.1700 C.3     2  K2M2       -0.0324
      9 NZ         -2.3060   -0.4830    0.4990 N.4     2  K2M2        0.2309
     10 CH2        -3.3000    0.4390    1.0820 C.3     2  K2M2       -0.0433
     11 HH23       -3.7240    1.1160    0.3080 H       2  K2M2        0.0777
     12 HH22       -4.1350   -0.1310    1.5470 H       2  K2M2        0.0777
     13 HH21       -2.8500    1.0520    1.8900 H       2  K2M2        0.0777
     14 CH1        -2.9760   -1.3760   -0.4640 C.3     2  K2M2       -0.0433
     15 HH13       -3.3920   -0.8000   -1.3200 H       2  K2M2        0.0777
     16 HH12       -3.8030   -1.9350    0.0280 H       2  K2M2        0.0777
     17 HH11       -2.2610   -2.1330   -0.8560 H       2  K2M2        0.0777
     18 HZ         -1.9150   -1.0810    1.2660 H       2  K2M2        0.2028
     19 HE2        -0.6630   -0.4330   -0.8580 H       2  K2M2        0.0814
     20 HE1        -1.6080    1.0860   -0.7890 H       2  K2M2        0.0814
     21 HD2         0.2950   -0.0380    1.3960 H       2  K2M2        0.0317
     22 HD1        -0.6810    1.4400    1.5850 H       2  K2M2        0.0317
     23 HG2         0.4270    2.5380   -0.3170 H       2  K2M2        0.0268
     24 HG1         1.5740    2.0770    0.9670 H       2  K2M2        0.0268
     25 HB2         2.5300    1.6740   -1.2610 H       2  K2M2        0.0284
     26 HB1         1.1540    0.6530   -1.7440 H       2  K2M2        0.0284
     27 HA          1.7920   -1.0620   -0.0270 H       2  K2M2        0.0534
     28 H           3.7940   -0.7940    1.2100 H       2  K2M2        0.1188
     29 HW          4.1080    0.7210    0.5330 H       2  K2M2        0.1188
     30 HW1         4.4730   -0.9230   -1.3090 H       2  K2M2        0.1043
@<TRIPOS>UNITY_ATOM_ATTR
9 1
charge 1
@<TRIPOS>BOND
     1     1     2    1
     2     1    28    1
     3     1    29    1
     4     2     3    1
     5     2     5    1
     6     2    27    1
     7     3     4    2
     8     3    30    1
     9     5     6    1
    10     5    25    1
    11     5    26    1
    12     6     7    1
    13     6    23    1
    14     6    24    1
    15     7     8    1
    16     7    21    1
    17     7    22    1
    18     8     9    1
    19     8    19    1
    20     8    20    1
    21     9    10    1
    22     9    14    1
    23     9    18    1
    24    10    11    1
    25    10    12    1
    26    10    13    1
    27    14    15    1
    28    14    16    1
    29    14    17    1
