@<TRIPOS>MOLECULE
MOL
   30    29     1     0     0
SMALL
gas


@<TRIPOS>ATOM
      1 N1           3.3430     0.0710     0.8310 NT         1 MOL      -0.321752
      2 C1           2.5310    -0.2920    -0.3340 CT         1 MOL       0.060484
      3 C2           3.3920    -0.8980    -1.4140 C          1 MOL       0.136167
      4 O1           2.8800    -1.3830    -2.4110 O          1 MOL      -0.301670
      5 C3           1.7840     0.9440    -0.8770 CT         1 MOL      -0.030919
      6 C4           0.9150     1.6670     0.1720 CT         1 MOL      -0.046438
      7 C5          -0.1720     0.8000     0.8360 CT         1 MOL      -0.013639
      8 C6          -1.2050     0.2530    -0.1700 CT         1 MOL      -0.035044
      9 N2          -2.3060    -0.4830     0.4990 N3         1 MOL       0.242372
     10 C7          -3.3000     0.4390     1.0820 CT         1 MOL      -0.045886
     11 H1          -3.7240     1.1160     0.3080 HP         1 MOL       0.077681
     12 H2          -4.1350    -0.1310     1.5470 HP         1 MOL       0.077681
     13 H3          -2.8500     1.0520     1.8900 HP         1 MOL       0.077681
     14 C8          -2.9760    -1.3760    -0.4640 CT         1 MOL      -0.045886
     15 H4          -3.3920    -0.8000    -1.3200 HP         1 MOL       0.077681
     16 H5          -3.8030    -1.9350     0.0280 HP         1 MOL       0.077681
     17 H6          -2.2610    -2.1330    -0.8560 HP         1 MOL       0.077681
     18 H7          -1.9150    -1.0810     1.2660 H          1 MOL       0.199501
     19 H8          -0.6630    -0.4330    -0.8580 HP         1 MOL       0.081417
     20 H9          -1.6080     1.0860    -0.7890 HP         1 MOL       0.081417
     21 H10          0.2950    -0.0380     1.3960 HC         1 MOL       0.032061
     22 H11         -0.6810     1.4400     1.5850 HC         1 MOL       0.032061
     23 H12          0.4270     2.5380    -0.3170 HC         1 MOL       0.026938
     24 H13          1.5740     2.0770     0.9670 HC         1 MOL       0.026938
     25 H14          2.5300     1.6740    -1.2610 HC         1 MOL       0.028698
     26 H15          1.1540     0.6530    -1.7440 HC         1 MOL       0.028698
     27 H16          1.7920    -1.0620    -0.0270 H1         1 MOL       0.054210
     28 H17          3.7940    -0.7940     1.2100 H          1 MOL       0.119073
     29 H18          4.1080     0.7210     0.5330 H          1 MOL       0.119073
     30 H19          4.4730    -0.9230    -1.3090 HA         1 MOL       0.106038
@<TRIPOS>BOND
     1     1     2 1   
     2     1    28 1   
     3     1    29 1   
     4     2     3 1   
     5     2     5 1   
     6     2    27 1   
     7     3     4 2   
     8     3    30 1   
     9     5     6 1   
    10     5    25 1   
    11     5    26 1   
    12     6     7 1   
    13     6    23 1   
    14     6    24 1   
    15     7     8 1   
    16     7    21 1   
    17     7    22 1   
    18     8     9 1   
    19     8    19 1   
    20     8    20 1   
    21     9    10 1   
    22     9    14 1   
    23     9    18 1   
    24    10    11 1   
    25    10    12 1   
    26    10    13 1   
    27    14    15 1   
    28    14    16 1   
    29    14    17 1   
@<TRIPOS>SUBSTRUCTURE
     1 MOL         1 TEMP              0 ****  ****    0 ROOT
