@<TRIPOS>MOLECULE
Lysine_Cro_rn_H_3D.pdb
   32    31     1     0     0
SMALL
gas


@<TRIPOS>ATOM
      1 N           -5.0140    -1.2740     0.4110 NT         2 KCR      -0.321751
      2 CA          -4.2780    -0.3890    -0.4940 CT         2 KCR       0.060483
      3 C           -4.6180     1.0560    -0.2180 C          2 KCR       0.136170
      4 O           -4.3800     1.5590     0.8690 O          2 KCR      -0.301661
      5 CB          -2.7650    -0.6520    -0.3670 CT         2 KCR      -0.031072
      6 CG          -1.9530     0.1060    -1.4330 CT         2 KCR      -0.049917
      7 CD          -0.4660    -0.2810    -1.4290 CT         2 KCR      -0.037504
      8 CE           0.2810     0.2500    -0.1980 CT         2 KCR       0.011250
      9 NZ           1.7130    -0.0320    -0.2970 N          2 KCR      -0.311891
     10 CH           2.6280     0.3750     0.7300 C          2 KCR       0.235238
     11 OT2          2.2020     0.9920     1.7450 O          2 KCR      -0.272660
     12 CT1          4.0640     0.0680     0.5910 CD         2 KCR      -0.003686
     13 CI           4.9640     0.4210     1.5130 CM         2 KCR      -0.082420
     14 CK           6.4120     0.0930     1.3380 CT         2 KCR      -0.046490
     15 HK3          6.8000     0.5730     0.4140 HC         2 KCR       0.027351
     16 HK2          6.9900     0.4700     2.2080 HC         2 KCR       0.027351
     17 HK1          6.5460    -1.0070     1.2670 HC         2 KCR       0.027351
     18 HI           4.6600     0.9530     2.4070 HA         2 KCR       0.057476
     19 HT1          4.3930    -0.4630    -0.2950 HA         2 KCR       0.067507
     20 HZ           2.0880    -0.5440    -1.1290 H          2 KCR       0.149657
     21 HE2          0.1320     1.3490    -0.1180 H1         2 KCR       0.046683
     22 HE1         -0.1140    -0.2330     0.7210 H1         2 KCR       0.046683
     23 HD2         -0.3610    -1.3870    -1.4850 HC         2 KCR       0.028256
     24 HD1          0.0040     0.1490    -2.3410 HC         2 KCR       0.028256
     25 HG2         -2.0530     1.2030    -1.2820 HC         2 KCR       0.026784
     26 HG1         -2.3660    -0.1350    -2.4370 HC         2 KCR       0.026784
     27 HB2         -2.5860    -1.7430    -0.4870 HC         2 KCR       0.028694
     28 HB1         -2.4260    -0.3610     0.6500 HC         2 KCR       0.028694
     29 HA          -4.5890    -0.6270    -1.5350 H1         2 KCR       0.054207
     30 H           -6.0390    -1.1180     0.2730 H          2 KCR       0.119072
     31 HW          -4.7900    -1.0270     1.4030 H          2 KCR       0.119072
     32 HW1         -5.0790     1.6580    -0.9950 HA         2 KCR       0.106031
@<TRIPOS>BOND
     1     1     2 1   
     2     1    30 1   
     3     1    31 1   
     4     2     3 1   
     5     2     5 1   
     6     2    29 1   
     7     3     4 2   
     8     3    32 1   
     9     5     6 1   
    10     5    27 1   
    11     5    28 1   
    12     6     7 1   
    13     6    25 1   
    14     6    26 1   
    15     7     8 1   
    16     7    23 1   
    17     7    24 1   
    18     8     9 1   
    19     8    21 1   
    20     8    22 1   
    21     9    10 1   
    22     9    20 1   
    23    10    11 2   
    24    10    12 1   
    25    12    13 2   
    26    12    19 1   
    27    13    14 1   
    28    13    18 1   
    29    14    15 1   
    30    14    16 1   
    31    14    17 1   
@<TRIPOS>SUBSTRUCTURE
     1 KCR         1 TEMP              0 ****  ****    0 ROOT
