@<TRIPOS>MOLECULE
../molecules/substructure/AF_647_rn_H_3D.pdb
  117   121     1     0     0
SMALL
No Charge or Current Charge


@<TRIPOS>ATOM
      1 N           12.0360     0.5750     2.2410 n8         2 647      -0.320900
      2 CA          12.6050     1.6960     1.4690 c3         2 647       0.070000
      3 C           14.0840     1.4950     1.2550 c          2 647       0.137700
      4 O           14.7410     2.3320     0.6600 o          2 647      -0.299400
      5 CB          11.8870     1.8310     0.1210 c3         2 647       0.016200
      6 SG          10.0920     2.0810     0.3510 ss         2 647      -0.145500
      7 CD           9.5910     1.2360    -1.1950 c5         2 647       0.093200
      8 CE1          8.2380     1.6780    -1.6350 c          2 647       0.268200
      9 CE2          9.4110    -0.2870    -0.9690 c5         2 647       0.047700
     10 OZ1          7.9720     2.8690    -1.9740 o          2 647      -0.271000
     11 NZ2          7.2900     0.6200    -1.7300 n          2 647      -0.062400
     12 CZ3          7.9970    -0.5440    -1.3520 c          2 647       0.256600
     13 OH1          6.3530     0.5730    -2.7360 os         2 647      -0.337300
     14 OH2          7.4400    -1.6520    -1.2120 o          2 647      -0.272100
     15 CT           5.0650     1.0840    -2.5800 c          2 647       0.331500
     16 OI1          4.2800     1.0220    -3.5590 o          2 647      -0.248700
     17 CI2          4.5700     1.6580    -1.2730 c3         2 647       0.047000
     18 CK           4.4930     0.6170    -0.1420 c3         2 647      -0.042900
     19 C19          3.7030    -0.6580    -0.4890 c3         2 647      -0.051400
     20 C20          2.1800    -0.4700    -0.6750 c3         2 647      -0.038300
     21 C21          1.3020    -0.4310     0.6190 c5         2 647       0.032900
     22 C22         -0.1430    -0.7610     0.2300 ce         2 647       0.021200
     23 C23          1.4110     0.9070     1.3870 c3         2 647      -0.050200
     24 C24          1.5610    -1.6090     1.5440 ca         2 647      -0.012800
     25 C25         -1.0810     0.1680    -0.0490 ce         2 647      -0.043600
     26 N26         -0.4980    -2.1040     0.6060 nh         2 647      -0.302400
     27 C27          0.5340    -2.5230     1.4750 ca         2 647       0.037900
     28 C28          2.5990    -1.7900     2.4620 ca         2 647      -0.032000
     29 C29         -2.4130    -0.0120     0.5610 cf         2 647      -0.060300
     30 C30         -1.2640    -3.0250    -0.2560 c3         2 647       0.018500
     31 C31          0.5030    -3.6590     2.2790 ca         2 647      -0.038300
     32 C32          2.6050    -2.9430     3.2770 ca         2 647       0.077000
     33 C33         -3.5360    -0.2430    -0.1170 cf         2 647      -0.061500
     34 C34         -0.5530    -3.2990    -1.6000 c3         2 647      -0.018400
     35 C35          1.5560    -3.8710     3.1850 ca         2 647      -0.036100
     36 S36          3.9230    -3.2360     4.4100 s6         2 647      -0.051200
     37 C37         -4.6540    -0.8400     0.6270 ce         2 647      -0.055900
     38 C38          0.7530    -4.1010    -1.4910 c3         2 647       0.056100
     39 O39          5.1190    -2.0750     4.2260 o          2 647      -0.720200
     40 O40          3.4040    -3.1980     5.8170 o          2 647      -0.180300
     41 O41          4.5040    -4.5940     4.1270 o          2 647      -0.180300
     42 C42         -5.8890    -0.3540     0.7110 ce         2 647       0.006100
     43 S43          0.4890    -5.8460    -1.1870 s6         2 647      -0.080500
     44 C44         -6.3290     0.9520     0.1650 c2         2 647       0.194500
     45 O45         -0.6600    -6.4610    -2.2490 o          2 647      -0.724500
     46 O46          0.0490    -6.0730     0.2310 o          2 647      -0.185300
     47 O47          1.7930    -6.5710    -1.4180 o          2 647      -0.185300
     48 N48         -6.9160     1.0840    -1.0020 nh         2 647      -0.193900
     49 C49         -6.5430     2.1600     1.0620 c5         2 647       0.080700
     50 C50         -7.6020     2.3320    -1.0150 ca         2 647       0.212300
     51 C51         -6.9690     0.0590    -2.0480 c3         2 647       0.152800
     52 C52         -7.4540     2.9700     0.1930 ca         2 647       0.041300
     53 C53         -7.2290     1.7890     2.3910 c3         2 647      -0.045900
     54 C54         -5.2160     2.8990     1.3040 c3         2 647      -0.045900
     55 C55         -8.3530     2.8960    -2.0450 ca         2 647       0.011800
     56 C56         -8.0760    -0.9720    -1.7440 c3         2 647       0.025400
     57 C57         -8.0970     4.1770     0.4590 ca         2 647      -0.027400
     58 C58         -8.9920     4.1230    -1.8050 ca         2 647      -0.031600
     59 C59         -9.3900    -0.6630    -2.4700 c3         2 647       0.060400
     60 C60         -8.8900     4.7530    -0.5500 ca         2 647       0.077300
     61 S61        -10.6750    -1.7730    -1.9240 s6         2 647      -0.080300
     62 S62         -9.7530     6.2650    -0.2480 s6         2 647      -0.051200
     63 O63        -10.0430    -3.3210    -1.7040 o          2 647      -0.724500
     64 O64        -11.7910    -1.8420    -2.9440 o          2 647      -0.185300
     65 O65        -11.2380    -1.2840    -0.6190 o          2 647      -0.185300
     66 O66         -8.9700     7.1350     0.9580 o          2 647      -0.720200
     67 O67         -9.7690     7.0890    -1.5030 o          2 647      -0.180300
     68 O68        -11.1640     5.9650     0.1800 o          2 647      -0.180300
     69 HA          12.4560     2.6290     2.0550 h1         2 647       0.054200
     70 H           12.0290    -0.2800     1.6400 hn         2 647       0.118900
     71 HB1         12.0900     0.9300    -0.4850 h1         2 647       0.039600
     72 HB2         12.2820     2.7150    -0.4150 h1         2 647       0.039600
     73 HD          10.3150     1.4240    -2.0220 h1         2 647       0.051300
     74 HI21         5.2370     2.4920    -0.9780 hc         2 647       0.037800
     75 HI22         3.5670     2.1160    -1.4270 hc         2 647       0.037800
     76 HK1          4.0830     1.1120     0.7520 hc         2 647       0.027000
     77 HK2          5.5320     0.3310     0.1300 hc         2 647       0.027000
     78 H191         3.9330    -1.4170     0.2690 hc         2 647       0.026600
     79 H192         4.1280    -1.0850    -1.4270 hc         2 647       0.026600
     80 H201         1.9660     0.4060    -1.3110 hc         2 647       0.027700
     81 H202         1.8510    -1.3470    -1.2800 hc         2 647       0.027700
     82 H251        -0.7720     1.1750    -0.2790 ha         2 647       0.063300
     83 H291        -2.4810     0.1650     1.6330 ha         2 647       0.061800
     84 H331        -3.5620    -0.1570    -1.1980 ha         2 647       0.061800
     85 H371        -4.4080    -1.6780     1.2710 ha         2 647       0.062000
     86 H421        -6.5850    -0.8500     1.3790 ha         2 647       0.068000
     87 H571        -7.9970     4.6540     1.4250 ha         2 647       0.064100
     88 H581        -9.5700     4.5700    -2.6010 ha         2 647       0.063800
     89 H551        -8.4280     2.4170    -3.0130 ha         2 647       0.068400
     90 H531        -7.4700     2.6970     2.9850 hc         2 647       0.024300
     91 H532        -6.5650     1.1570     3.0120 hc         2 647       0.024300
     92 H533        -8.1720     1.2360     2.1920 hc         2 647       0.024300
     93 H541        -4.7420     3.1640     0.3260 hc         2 647       0.024300
     94 H542        -4.5160     2.2490     1.8710 hc         2 647       0.024300
     95 H543        -5.3860     3.8410     1.8650 hc         2 647       0.024300
     96 H511        -7.1100     0.5160    -3.0480 h1         2 647       0.103100
     97 H512        -5.9920    -0.4750    -2.0990 h1         2 647       0.103100
     98 H561        -7.7160    -1.9850    -2.0530 hc         2 647       0.034200
     99 H562        -8.2690    -1.0160    -0.6480 hc         2 647       0.034200
    100 H591        -9.7200     0.3760    -2.2620 h1         2 647       0.049200
    101 H592        -9.2420    -0.7900    -3.5680 h1         2 647       0.049200
    102 H281         3.3990    -1.0560     2.5540 ha         2 647       0.064000
    103 H351         1.5450    -4.7450     3.8210 ha         2 647       0.063700
    104 H311        -0.3380    -4.3510     2.2570 ha         2 647       0.063700
    105 H301        -1.4640    -3.9770     0.2680 h1         2 647       0.046800
    106 H302        -2.2540    -2.5880    -0.4740 h1         2 647       0.046800
    107 H341        -0.3310    -2.3260    -2.1040 hc         2 647       0.029600
    108 H342        -1.2530    -3.8300    -2.2790 hc         2 647       0.029600
    109 H381         1.4240    -3.6890    -0.7120 h1         2 647       0.049000
    110 H382         1.2980    -4.0240    -2.4630 h1         2 647       0.049000
    111 H231         0.5010     1.0960     1.9800 hc         2 647       0.024200
    112 H232         1.5460     1.7450     0.6780 hc         2 647       0.024200
    113 H233         2.2580     0.9150     2.0870 hc         2 647       0.024200
    114 HE21        10.1000    -0.8740    -1.6170 hc         2 647       0.037500
    115 HE22         9.5840    -0.5710     0.0950 hc         2 647       0.037500
    116 HW1         12.6500     0.3780     3.0640 hn         2 647       0.118900
    117 HW2         14.5840     0.6010     1.6310 h4         2 647       0.104300
@<TRIPOS>BOND
     1     1     2 1   
     2     1    70 1   
     3     1   116 1   
     4     2     3 1   
     5     2     5 1   
     6     2    69 1   
     7     3     4 2   
     8     3   117 1   
     9     5     6 1   
    10     5    71 1   
    11     5    72 1   
    12     6     7 1   
    13     7     8 1   
    14     7     9 1   
    15     7    73 1   
    16     8    10 2   
    17     8    11 1   
    18     9    12 1   
    19     9   114 1   
    20     9   115 1   
    21    11    12 1   
    22    11    13 1   
    23    12    14 2   
    24    13    15 1   
    25    15    16 2   
    26    15    17 1   
    27    17    18 1   
    28    17    74 1   
    29    17    75 1   
    30    18    19 1   
    31    18    76 1   
    32    18    77 1   
    33    19    20 1   
    34    19    78 1   
    35    19    79 1   
    36    20    21 1   
    37    20    80 1   
    38    20    81 1   
    39    21    22 1   
    40    21    23 1   
    41    21    24 1   
    42    22    25 1   
    43    22    26 2   
    44    23   111 1   
    45    23   112 1   
    46    23   113 1   
    47    24    27 ar  
    48    24    28 ar  
    49    25    29 2   
    50    25    82 1   
    51    26    27 1   
    52    26    30 1   
    53    27    31 ar  
    54    28    32 ar  
    55    28   102 1   
    56    29    33 1   
    57    29    83 1   
    58    30    34 1   
    59    30   105 1   
    60    30   106 1   
    61    31    35 ar  
    62    31   104 1   
    63    32    35 ar  
    64    32    36 1   
    65    33    37 2   
    66    33    84 1   
    67    34    38 1   
    68    34   107 1   
    69    34   108 1   
    70    35   103 1   
    71    36    39 1   
    72    36    40 1   
    73    36    41 1   
    74    37    42 1   
    75    37    85 1   
    76    38    43 1   
    77    38   109 1   
    78    38   110 1   
    79    42    44 2   
    80    42    86 1   
    81    43    45 1   
    82    43    46 1   
    83    43    47 1   
    84    44    48 1   
    85    44    49 1   
    86    48    50 1   
    87    48    51 1   
    88    49    52 1   
    89    49    53 1   
    90    49    54 1   
    91    50    52 ar  
    92    50    55 ar  
    93    51    56 1   
    94    51    96 1   
    95    51    97 1   
    96    52    57 ar  
    97    53    90 1   
    98    53    91 1   
    99    53    92 1   
   100    54    93 1   
   101    54    94 1   
   102    54    95 1   
   103    55    58 ar  
   104    55    89 1   
   105    56    59 1   
   106    56    98 1   
   107    56    99 1   
   108    57    60 ar  
   109    57    87 1   
   110    58    60 ar  
   111    58    88 1   
   112    59    61 1   
   113    59   100 1   
   114    59   101 1   
   115    60    62 1   
   116    61    63 1   
   117    61    64 1   
   118    61    65 1   
   119    62    66 1   
   120    62    67 1   
   121    62    68 1   
@<TRIPOS>SUBSTRUCTURE
     1 647         1 TEMP              0 ****  ****    0 ROOT
