@<TRIPOS>MOLECULE
SEP.pdb
18 17 1 0 0
SMALL
AMBER ff99SB


@<TRIPOS>ATOM
      1 N          -2.1120   -1.3610   -0.3450 N.4       1 SEP   -0.8446
      2 CA         -0.9780   -1.3750   -1.2780 C.3       1 SEP   -0.0705
      3 CB          0.1900   -0.5980   -0.6700 C.3       1 SEP    0.1894
      4 OG         -0.2080    0.7520   -0.4290 O.3       1 SEP   -0.6002
      5 C          -0.5580   -2.7980   -1.5340 C.2       1 SEP    0.9236
      6 O          -0.7090   -3.6370   -0.6770 O.co2     1 SEP   -0.8403
      7 OXT        -0.0130   -3.1360   -2.7130 O.co2     1 SEP   -0.7653
      8 P           1.0630    1.5070    0.2060 P.3       1 SEP    1.4448
      9 O1P         2.1930    1.4570   -0.7470 O.co2     1 SEP   -0.7995
     10 O2P         0.6820    3.0420    0.5070 O.co2     1 SEP   -0.8675
     11 O3P         1.4870    0.7820    1.5790 O.3       1 SEP   -0.7564
     12 H3         -2.2930   -0.3920   -0.1230 H         1 SEP    0.5038
     13 H2         -1.7950   -1.7980    0.5050 H         1 SEP    0.4518
     14 HA         -1.2740   -0.9100   -2.2180 H         1 SEP    0.0687
     15 HB1         0.4880   -1.0620    0.2690 H         1 SEP    0.0787
     16 HB2         1.0320   -0.6090   -1.3630 H         1 SEP    0.0427
     17 HOP3        0.7240    0.8360    2.1710 H         1 SEP    0.4350
     18 H1         -2.9260   -1.8210   -0.7290 H         1 SEP    0.4048
@<TRIPOS>BOND
     1    5    2 1
     2    5    6 2
     3    5    7 1 
     4    2    3 1
     5    2   14 1
     6    2    1 1
     7    3   15 1
     8    3   16 1
     9    3    4 1
    10   18    1 1
    11   13    1 1
    12   12    1 1
    13   17   11 1
    14    9    8 2
    15   10    8 1
    16   11    8 1
    17    4    8 1
@<TRIPOS>SUBSTRUCTURE
     1 SEP     2 RESIDUE           4 A     SEP     0 ROOT
