@<TRIPOS>MOLECULE

29 28 1
SMALL
USER_CHARGES
@<TRIPOS>ATOM
1	N1    -3.2430    -0.5510     0.7140	N.3	1	noname	0.0000
2	C1    -2.7810     0.3520    -0.3420	C.3	1	noname	0.0000
3	C2    -2.5980     1.7430     0.2090	C.3	1	noname	0.0000
4	O1    -2.3500     2.6750    -0.5390	O.3	1	noname	0.0000
5	C3    -1.4780    -0.1740    -0.9790	C.3	1	noname	0.0000
6	C4    -0.3310    -0.3410     0.0340	C.3	1	noname	0.0000
7	C5     0.9430    -0.8470    -0.6590	C.3	1	noname	0.0000
8	C6     2.0590    -1.2330     0.3340	C.3	1	noname	0.0000
9	N2     2.5250    -0.1210     1.1830	N.3	1	noname	0.0000
10	C7     3.1540     0.9580     0.4120	C.3	1	noname	0.0000
11	H1     3.6720     1.6570     1.1040	H	1	noname	0.0000
12	H2     2.3900     1.5430    -0.1430	H	1	noname	0.0000
13	H3     3.9080     0.5530    -0.2990	H	1	noname	0.0000
14	H4     1.7410     0.2640     1.7560	H	1	noname	0.0000
15	H5     3.2400    -0.5020     1.8460	H	1	noname	0.0000
16	H6     1.6830    -2.0520     0.9870	H	1	noname	0.0000
17	H7     2.9160    -1.6540    -0.2380	H	1	noname	0.0000
18	H8     0.6930    -1.7560    -1.2480	H	1	noname	0.0000
19	H9     1.3110    -0.0880    -1.3810	H	1	noname	0.0000
20	H10    -0.1250     0.6400     0.5100	H	1	noname	0.0000
21	H11    -0.6330    -1.0650     0.8210	H	1	noname	0.0000
22	H12    -1.6880    -1.1560    -1.4570	H	1	noname	0.0000
23	H13    -1.1590     0.5230    -1.7860	H	1	noname	0.0000
24	H14    -3.5600     0.4010    -1.1370	H	1	noname	0.0000
25	H15    -3.4240    -1.4900     0.2880	H	1	noname	0.0000
26	H16    -4.1700    -0.2090     1.0580	H	1	noname	0.0000
27	H17    -2.6940     1.9290     1.2740	H	1	noname	0.0000
28	H18    -2.5044     2.5675     0.9157	H	1	noname	0.0000
29	H19    -2.1423     3.4554    -0.0199	H	1	noname	0.0000
@<TRIPOS>BOND
1	1	2	1
2	1	25	1
3	1	26	1
4	2	3	1
5	2	5	1
6	2	24	1
7	3	4	1
8	3	27	1
9	5	6	1
10	5	22	1
11	5	23	1
12	6	7	1
13	6	20	1
14	6	21	1
15	7	8	1
16	7	18	1
17	7	19	1
18	8	9	1
19	8	16	1
20	8	17	1
21	9	10	1
22	9	14	1
23	9	15	1
24	10	11	1
25	10	12	1
26	10	13	1
27	3	28	1
28	4	29	1
@<TRIPOS>SUBSTRUCTURE
1	noname	1
