@<TRIPOS>MOLECULE
custom built
39 38 3 0 0
PROTEIN
NO_CHARGES


@<TRIPOS>ATOM
      1 N          -1.3176   -4.1022    0.0186 N.4       1 GLY    0.0000
      2 CA          0.1314   -4.1022    0.0186 C.3       1 GLY    0.0000
      3 C           0.6545   -2.6729    0.0186 C.2       1 GLY    0.0000
      4 O           1.5471   -2.3373    0.7938 O.2       1 GLY    0.0000
      5 HA2         0.4918   -4.6179    0.9087 H         1 GLY    0.0000
      6 HA3         0.4930   -4.6195   -0.8701 H         1 GLY    0.0000
      7 H1         -1.6547   -4.9909    0.3603 H         1 GLY    0.0000
      8 H2         -1.6540   -3.3619    0.6176 H         1 GLY    0.0000
      9 H3         -1.6542   -3.9535   -0.9220 H         1 GLY    0.0000
     10 N           0.0954   -1.8318   -0.8544 N.am      2 LYS    0.0000
     11 CA          0.5055   -0.4455   -0.9523 C.3       2 LYS    0.0000
     12 C           0.3514    0.2421    0.3968 C.2       2 LYS    0.0000
     13 O           1.2584    0.9385    0.8470 O.2       2 LYS    0.0000
     14 CB         -0.3430    0.3106   -1.9629 C.3       2 LYS    0.0000
     15 CG          0.1322    1.7575   -2.0406 C.3       2 LYS    0.0000
     16 CD         -0.6827    2.5045   -3.0910 C.3       2 LYS    0.0000
     17 CE         -0.2362    3.9619   -3.1389 C.3       2 LYS    0.0000
     18 NZ         -1.0217    4.6820   -4.1515 N.4       2 LYS    0.0000
     19 H          -0.6345   -2.1715   -1.4643 H         2 LYS    0.0000
     20 HA          1.5506   -0.4022   -1.2588 H         2 LYS    0.0000
     21 HB2        -0.2452   -0.1574   -2.9425 H         2 LYS    0.0000
     22 HB3        -1.3872    0.2869   -1.6512 H         2 LYS    0.0000
     23 HG2        -0.0004    2.2359   -1.0702 H         2 LYS    0.0000
     24 HG3         1.1868    1.7794   -2.3155 H         2 LYS    0.0000
     25 HD2        -0.5264    2.0445   -4.0667 H         2 LYS    0.0000
     26 HD3        -1.7404    2.4568   -2.8320 H         2 LYS    0.0000
     27 HE2         0.8214    4.0094   -3.3983 H         2 LYS    0.0000
     28 HE3        -0.3921    4.4220   -2.1632 H         2 LYS    0.0000
     29 HZ1        -0.7263    5.6473   -4.1836 H         2 LYS    0.0000
     30 HZ2        -0.8768    4.2556   -5.0556 H         2 LYS    0.0000
     31 HZ3        -2.0018    4.6376   -3.9115 H         2 LYS    0.0000
     32 N          -0.8014    0.0441    1.0403 N.am      3 GLY    0.0000
     33 CA         -1.0699    0.6435    2.3320 C.3       3 GLY    0.0000
     34 C           0.0032    0.2355    3.3312 C.2       3 GLY    0.0000
     35 O           0.4919    1.1278    4.0206 O.co2     3 GLY    0.0000
     36 OXT         0.3014   -0.9560    3.3743 O.co2     3 GLY    0.0000
     37 H          -1.5067   -0.5402    0.6146 H         3 GLY    0.0000
     38 HA2        -1.0750    1.7288    2.2316 H         3 GLY    0.0000
     39 HA3        -2.0435    0.3090    2.6903 H         3 GLY    0.0000
@<TRIPOS>BOND
     1    2    1 1
     2    3    2 1
     3    4    3 2
     4   10    3 am
     5   11   10 1
     6   12   11 1
     7   13   12 2
     8   32   12 am
     9   33   32 1
    10   34   33 1
    11   35   34 2
    12   36   34 2
    13   14   11 1
    14   15   14 1
    15   16   15 1
    16   17   16 1
    17   18   17 1
    18    5    2 1
    19    6    2 1
    20   19   10 1
    21   20   11 1
    22   37   32 1
    23   38   33 1
    24   39   33 1
    25   21   14 1
    26   22   14 1
    27   23   15 1
    28   24   15 1
    29   25   16 1
    30   26   16 1
    31   27   17 1
    32   28   17 1
    33    7    1 1
    34    8    1 1
    35    9    1 1
    36   29   18 1
    37   30   18 1
    38   31   18 1
@<TRIPOS>SUBSTRUCTURE
     1 GLY     2 RESIDUE           4 A     GLY     1 ROOT
     2 LYS    11 RESIDUE           4 A     LYS     2
     3 GLY    33 RESIDUE           4 A     GLY     1
