@<TRIPOS>MOLECULE
custom built
25 24 1 0 0
PROTEIN
NO_CHARGES


@<TRIPOS>ATOM
      1 N          -2.0479    1.3179    0.5399 N.4       1 LYS    0.0000
      2 CA         -0.5989    1.3179    0.5399 C.3       1 LYS    0.0000
      3 C          -0.0759    2.7472    0.5399 C.2       1 LYS    0.0000
      4 O           0.8172    3.0145    1.3408 O.co2     1 LYS    0.0000
      5 OXT        -0.5855    3.5278   -0.2610 O.co2     1 LYS    0.0000
      6 CB         -0.0475    0.6174   -0.6922 C.3       1 LYS    0.0000
      7 CG         -0.3729   -0.8705   -0.6151 C.3       1 LYS    0.0000
      8 CD          0.1954   -1.5793   -1.8399 C.3       1 LYS    0.0000
      9 CE         -0.1429   -3.0647   -1.7702 C.3       1 LYS    0.0000
     10 NZ          0.3946   -3.7458   -2.9568 N.4       1 LYS    0.0000
     11 HA         -0.2410    0.8057    1.4330 H         1 LYS    0.0000
     12 HB1         1.0334    0.7517   -0.7339 H         1 LYS    0.0000
     13 HB2        -0.5018    1.0433   -1.5868 H         1 LYS    0.0000
     14 HG1         0.0698   -1.2928    0.2870 H         1 LYS    0.0000
     15 HG2        -1.4542   -1.0050   -0.5866 H         1 LYS    0.0000
     16 HD1        -0.2393   -1.1497   -2.7425 H         1 LYS    0.0000
     17 HD2         1.2779   -1.4538   -1.8627 H         1 LYS    0.0000
     18 HE1        -1.2253   -3.1896   -1.7389 H         1 LYS    0.0000
     19 HE2         0.2989   -3.4963   -0.8721 H         1 LYS    0.0000
     20 H1         -2.3851    0.3658    0.5399 H         1 LYS    0.0000
     21 H2         -2.3843    1.7939    1.3647 H         1 LYS    0.0000
     22 H3         -2.3846    1.7942   -0.2846 H         1 LYS    0.0000
     23 HZ1         0.1708   -4.7297   -2.9111 H         1 LYS    0.0000
     24 HZ2        -0.0151   -3.3459   -3.7888 H         1 LYS    0.0000
     25 HZ3         1.3975   -3.6297   -2.9862 H         1 LYS    0.0000
@<TRIPOS>BOND
     1    2    1 1
     2    3    2 1
     3    4    3 2
     4    5    3 2
     5    6    2 1
     6    7    6 1
     7    8    7 1
     8    9    8 1
     9   10    9 1
    10   11    2 1
    11   12    6 1
    12   13    6 1
    13   14    7 1
    14   15    7 1
    15   16    8 1
    16   17    8 1
    17   18    9 1
    18   19    9 1
    19   20    1 1
    20   21    1 1
    21   22    1 1
    22   23   10 1
    23   24   10 1
    24   25   10 1
@<TRIPOS>SUBSTRUCTURE
     1 LYS     2 RESIDUE           4 A     LYS     0 ROOT
