@<TRIPOS>MOLECULE
Lysine_prop_rn_H_3D.pdb
   31    30     1     0     0
SMALL
bcc


@<TRIPOS>ATOM
      1 N           -4.3610    -0.4160     2.2810 NT         2 KPR      -0.899800
      2 CA          -3.7580    -0.2660     0.9550 CT         2 KPR       0.052500
      3 C           -4.2390    -1.3760     0.0580 C          2 KPR       0.570900
      4 O           -4.0080    -2.5440     0.3300 O          2 KPR      -0.519100
      5 CB          -2.2170    -0.2360     1.0480 CT         2 KPR      -0.113400
      6 CG          -1.5620     0.1210    -0.2950 CT         2 KPR      -0.077400
      7 CD          -0.0360     0.1880    -0.1620 CT         2 KPR      -0.106400
      8 CE           0.6180     0.5410    -1.5020 CT         2 KPR       0.084000
      9 NZ           2.0690     0.6350    -1.3510 N          2 KPR      -0.567900
     10 CH           2.9090    -0.5210    -1.2270 C          2 KPR       0.653100
     11 OT2          2.4120    -1.6790    -1.2710 O          2 KPR      -0.605100
     12 CT1          4.3820    -0.3580    -1.0020 CT         2 KPR      -0.156400
     13 CI           4.6730    -0.1070     0.4730 CT         2 KPR      -0.094100
     14 HI3          4.1690     0.8230     0.8130 HC         2 KPR       0.041033
     15 HI2          4.3190    -0.9630     1.0870 HC         2 KPR       0.041033
     16 HI1          5.7680     0.0080     0.6210 HC         2 KPR       0.041033
     17 HT12         4.9180    -1.2750    -1.3320 HC         2 KPR       0.073700
     18 HT11         4.7590     0.4950    -1.6050 HC         2 KPR       0.073700
     19 HZ           2.5110     1.5820    -1.3760 H          2 KPR       0.303500
     20 HE2          0.3690    -0.2210    -2.2720 H1         2 KPR       0.063200
     21 HE1          0.2280     1.5220    -1.8520 H1         2 KPR       0.063200
     22 HD2          0.2370     0.9610     0.5890 HC         2 KPR       0.046200
     23 HD1          0.3450    -0.7940     0.1910 HC         2 KPR       0.046200
     24 HG2         -1.9450     1.1070    -0.6400 HC         2 KPR       0.045200
     25 HG1         -1.8270    -0.6460    -1.0550 HC         2 KPR       0.045200
     26 HB2         -1.9190     0.5260     1.8010 HC         2 KPR       0.051200
     27 HB1         -1.8400    -1.2230     1.3970 HC         2 KPR       0.051200
     28 HA          -4.1080     0.6980     0.5230 H1         2 KPR       0.073700
     29 H           -4.1320     0.4310     2.8500 H          2 KPR       0.358300
     30 HW1         -3.9360    -1.2410     2.7660 H          2 KPR       0.358300
     31 HW2         -4.7990    -1.1380    -0.8410 HA         2 KPR       0.004200
@<TRIPOS>BOND
     1     1     2 1   
     2     1    29 1   
     3     1    30 1   
     4     2     3 1   
     5     2     5 1   
     6     2    28 1   
     7     3     4 2   
     8     3    31 1   
     9     5     6 1   
    10     5    26 1   
    11     5    27 1   
    12     6     7 1   
    13     6    24 1   
    14     6    25 1   
    15     7     8 1   
    16     7    22 1   
    17     7    23 1   
    18     8     9 1   
    19     8    20 1   
    20     8    21 1   
    21     9    10 1   
    22     9    19 1   
    23    10    11 2   
    24    10    12 1   
    25    12    13 1   
    26    12    17 1   
    27    12    18 1   
    28    13    14 1   
    29    13    15 1   
    30    13    16 1   
@<TRIPOS>SUBSTRUCTURE
     1 KPR         1 TEMP              0 ****  ****    0 ROOT
