@<TRIPOS>MOLECULE

25 25 1
SMALL
USER_CHARGES
@<TRIPOS>ATOM
1	N1    20.2857   -18.2511     0.0000	N.4	1	noname	-0.0074
2	C1    20.2857   -16.7111     0.0000	C.3	1	noname	0.0425
3	C2    18.9520   -15.9411     0.0000	C.2	1	noname	-0.0435
4	O1    17.6183   -16.7111     0.0000	O.2	1	noname	-0.4598
5	C3    21.6194   -15.9411     0.0000	C.3	1	noname	0.0230
6	C4    22.9530   -16.7111     0.0000	C.2	1	noname	-0.0181
7	C5    24.2867   -15.9411     0.0000	C.2	1	noname	-0.0274
8	C6    22.9530   -18.2511     0.0000	C.2	1	noname	-0.0274
9	C7    25.6204   -16.7111     0.0000	C.2	1	noname	0.0277
10	C8    24.2867   -19.0211     0.0000	C.2	1	noname	0.0277
11	C9    25.6204   -18.2511     0.0000	C.2	1	noname	0.0347
12	N2    26.9541   -19.0211     0.0000	N.1	1	noname	-0.0156
13	O2    28.2878   -18.2511     0.0000	O.2	1	noname	-0.1448
14	O3    26.9541   -20.5611     0.0000	O.2	1	noname	-0.1448
15	O4    18.9520   -14.4011     0.0000	O.3	1	noname	-0.4598
16	H1    18.7457   -18.2511     0.0000	H	1	noname	0.2553
17	H2    20.2857   -19.7911     0.0000	H	1	noname	0.2553
18	H3    21.8257   -18.2511     0.0000	H	1	noname	0.2553
19	H4    20.2857   -15.1711     0.0000	H	1	noname	0.0962
20	H5    22.7991   -14.9512     0.0000	H	1	noname	0.0381
21	H6    21.8868   -14.4245     0.0000	H	1	noname	0.0381
22	H7    25.0987   -14.6326     0.0000	H	1	noname	0.0626
23	H8    22.5545   -19.7386     0.0000	H	1	noname	0.0626
24	H9    26.9541   -15.9411     0.0000	H	1	noname	0.0647
25	H10    24.2867   -20.5611     0.0000	H	1	noname	0.0647
@<TRIPOS>BOND
1	2	3	1
2	3	4	2
3	3	15	1
4	2	5	1
5	2	19	1
6	2	1	1
7	5	6	1
8	5	20	1
9	5	21	1
10	7	9	ar
11	7	6	ar
12	7	22	1
13	8	10	ar
14	8	6	ar
15	8	23	1
16	9	11	ar
17	9	24	1
18	10	11	ar
19	10	25	1
20	11	12	1
21	16	1	1
22	17	1	1
23	18	1	1
24	12	13	2
25	12	14	2
@<TRIPOS>SUBSTRUCTURE
1	noname	1
