@<TRIPOS>MOLECULE
Lysine_Butyryl_rn_H_3D.pdb
   34    33     1     0     0
SMALL
gas


@<TRIPOS>ATOM
      1 N            4.9970    -0.0110     0.9050 NT         2 KBU      -0.321751
      2 CA           4.2010     0.8950     0.0730 CT         2 KBU       0.060483
      3 C            4.9620     1.2860    -1.1690 C          2 KBU       0.136170
      4 O            5.3060     0.4430    -1.9830 O          2 KBU      -0.301661
      5 CB           2.8520     0.2520    -0.2980 CT         2 KBU      -0.031072
      6 CG           1.9710     0.0200     0.9420 CT         2 KBU      -0.049917
      7 CD           0.6630    -0.7160     0.6110 CT         2 KBU      -0.037515
      8 CE          -0.3310     0.1600    -0.1620 CT         2 KBU       0.010936
      9 NZ          -1.6010    -0.5430    -0.3380 N          2 KBU      -0.315437
     10 CH          -2.5570    -0.6850     0.7220 C          2 KBU       0.211609
     11 OT2         -2.3330    -0.1790     1.8560 O          2 KBU      -0.277759
     12 CT1         -3.8550    -1.4000     0.4780 CT         2 KBU       0.024072
     13 CI          -4.9970    -0.4190     0.1840 CT         2 KBU      -0.047567
     14 CK          -4.8230     0.2940    -1.1570 CT         2 KBU      -0.064897
     15 HK3         -3.9220     0.9420    -1.1400 HC         2 KBU       0.023050
     16 HK2         -5.7090     0.9320    -1.3550 HC         2 KBU       0.023050
     17 HK1         -4.7280    -0.4470    -1.9800 HC         2 KBU       0.023050
     18 HI2         -5.9530    -0.9860     0.1590 HC         2 KBU       0.026879
     19 HI1         -5.0710     0.3350     0.9980 HC         2 KBU       0.026879
     20 HT12        -3.7450    -2.1200    -0.3610 HC         2 KBU       0.036442
     21 HT11        -4.1140    -1.9890     1.3850 HC         2 KBU       0.036442
     22 HZ          -1.8440    -0.8970    -1.2900 H          2 KBU       0.149321
     23 HE2         -0.5060     1.1200     0.3710 H1         2 KBU       0.046672
     24 HE1          0.0830     0.3960    -1.1650 H1         2 KBU       0.046672
     25 HD2          0.1980    -1.0330     1.5690 HC         2 KBU       0.028256
     26 HD1          0.8830    -1.6370     0.0270 HC         2 KBU       0.028256
     27 HG2          2.5310    -0.6000     1.6750 HC         2 KBU       0.026784
     28 HG1          1.7410     0.9920     1.4310 HC         2 KBU       0.026784
     29 HB2          2.3200     0.9290    -1.0000 HC         2 KBU       0.028694
     30 HB1          3.0290    -0.7160    -0.8160 HC         2 KBU       0.028694
     31 HA           4.0000     1.8230     0.6530 H1         2 KBU       0.054207
     32 H            5.2580    -0.8590     0.3490 H          2 KBU       0.119072
     33 HW1          5.8850     0.4730     1.1740 H          2 KBU       0.119072
     34 HW2          5.2080     2.3280    -1.3450 HA         2 KBU       0.106031
@<TRIPOS>BOND
     1     1     2 1   
     2     1    32 1   
     3     1    33 1   
     4     2     3 1   
     5     2     5 1   
     6     2    31 1   
     7     3     4 2   
     8     3    34 1   
     9     5     6 1   
    10     5    29 1   
    11     5    30 1   
    12     6     7 1   
    13     6    27 1   
    14     6    28 1   
    15     7     8 1   
    16     7    25 1   
    17     7    26 1   
    18     8     9 1   
    19     8    23 1   
    20     8    24 1   
    21     9    10 1   
    22     9    22 1   
    23    10    11 2   
    24    10    12 1   
    25    12    13 1   
    26    12    20 1   
    27    12    21 1   
    28    13    14 1   
    29    13    18 1   
    30    13    19 1   
    31    14    15 1   
    32    14    16 1   
    33    14    17 1   
@<TRIPOS>SUBSTRUCTURE
     1 KBU         1 TEMP              0 ****  ****    0 ROOT
