@<TRIPOS>MOLECULE
MOL
   30    29     1     0     0
SMALL
gas


@<TRIPOS>ATOM
      1 N1          -3.9810    -1.2100     0.6930 NT         1 MOL      -0.321751
      2 C1          -3.4830     0.1140     1.0780 CT         1 MOL       0.060483
      3 C2          -3.9630     0.4530     2.4660 C          1 MOL       0.136170
      4 O1          -3.8110     1.5780     2.9140 O          1 MOL      -0.301661
      5 C3          -1.9410     0.1460     1.0430 CT         1 MOL      -0.031072
      6 C4          -1.3770     0.0280    -0.3810 CT         1 MOL      -0.049917
      7 C5           0.1440     0.2200    -0.3870 CT         1 MOL      -0.037515
      8 C6           0.7110     0.0870    -1.8050 CT         1 MOL       0.010948
      9 N2           2.1560     0.3080    -1.7990 N          1 MOL      -0.315110
     10 C7           3.0860    -0.6720    -1.3180 C          1 MOL       0.217290
     11 O2           2.6760    -1.7900    -0.9000 O          1 MOL      -0.277320
     12 C8           4.5490    -0.3600    -1.2710 CT         1 MOL       0.064150
     13 C9           4.8610     0.4300    -0.0420 C          1 MOL       0.050503
     14 O3           4.7740     1.8160    -0.0650 O2         1 MOL      -0.549624
     15 O4           5.1600    -0.1590     1.0300 O2         1 MOL      -0.549624
     16 H1           4.8360     0.2240    -2.1720 HC         1 MOL       0.042762
     17 H2           5.1400    -1.3010    -1.2760 HC         1 MOL       0.042762
     18 H3           2.5230     1.2010    -2.1990 H          1 MOL       0.149333
     19 H4           0.2320     0.8450    -2.4620 H1         1 MOL       0.046672
     20 H5           0.4860    -0.9190    -2.2230 H1         1 MOL       0.046672
     21 H6           0.3940     1.2290     0.0080 HC         1 MOL       0.028256
     22 H7           0.6120    -0.5410     0.2740 HC         1 MOL       0.028256
     23 H8          -1.6110    -0.9760    -0.7950 HC         1 MOL       0.026784
     24 H9          -1.8460     0.8000    -1.0300 HC         1 MOL       0.026784
     25 H10         -1.5910     1.1090     1.4780 HC         1 MOL       0.028694
     26 H11         -1.5380    -0.6790     1.6720 HC         1 MOL       0.028694
     27 H12         -3.8900     0.8780     0.3760 H1         1 MOL       0.054207
     28 H13         -3.8270    -1.3390    -0.3320 H          1 MOL       0.119072
     29 H14         -5.0210    -1.2230     0.8130 H          1 MOL       0.119072
     30 H15         -4.4620    -0.2960     3.0750 HA         1 MOL       0.106031
@<TRIPOS>BOND
     1     1     2 1   
     2     1    28 1   
     3     1    29 1   
     4     2     3 1   
     5     2     5 1   
     6     2    27 1   
     7     3     4 2   
     8     3    30 1   
     9     5     6 1   
    10     5    25 1   
    11     5    26 1   
    12     6     7 1   
    13     6    23 1   
    14     6    24 1   
    15     7     8 1   
    16     7    21 1   
    17     7    22 1   
    18     8     9 1   
    19     8    19 1   
    20     8    20 1   
    21     9    10 1   
    22     9    18 1   
    23    10    11 2   
    24    10    12 1   
    25    12    13 1   
    26    12    16 1   
    27    12    17 1   
    28    13    14 1   
    29    13    15 1   
@<TRIPOS>SUBSTRUCTURE
     1 MOL         1 TEMP              0 ****  ****    0 ROOT
