@<TRIPOS>MOLECULE
Lysine_1M_ACC_rn_H_3D.pdb
   31    30     1     0     0
SMALL
gas


@<TRIPOS>ATOM
      1 N            2.4100     0.8050    -0.8240 NT         2 KMA      -0.321751
      2 CA           2.8820    -0.5650    -0.6210 CT         2 KMA       0.060483
      3 C            3.6350    -0.6830     0.6790 C          2 KMA       0.136170
      4 O            3.1780    -0.2230     1.7140 O          2 KMA      -0.301661
      5 CB           1.7250    -1.5890    -0.7310 CT         2 KMA      -0.031072
      6 CG           0.7130    -1.6270     0.4360 CT         2 KMA      -0.049908
      7 CD          -0.0970    -0.3380     0.6550 CT         2 KMA      -0.037271
      8 CE          -1.0040     0.0090    -0.5330 CT         2 KMA       0.013708
      9 NZ          -1.8580     1.1590    -0.2000 N          2 KMA      -0.305215
     10 CH2         -3.1670     0.9940     0.3920 C          2 KMA       0.210813
     11 OT2         -3.8420     2.0110     0.7100 O          2 KMA      -0.277860
     12 CT1         -3.7710    -0.3610     0.6200 CT         2 KMA       0.012891
     13 HT13        -3.0830    -0.9950     1.2140 HC         2 KMA       0.032813
     14 HT12        -3.9800    -0.8460    -0.3560 HC         2 KMA       0.032813
     15 HT11        -4.7270    -0.2700     1.1780 HC         2 KMA       0.032813
     16 CH1         -1.3330     2.5140    -0.3930 CT         2 KMA       0.002640
     17 HH13        -0.3000     2.4950    -0.8030 H1         2 KMA       0.043286
     18 HH12        -1.3070     3.0490     0.5800 H1         2 KMA       0.043286
     19 HH11        -1.9820     3.0700    -1.1020 H1         2 KMA       0.043286
     20 HE2         -0.3870     0.2550    -1.4220 H1         2 KMA       0.046933
     21 HE1         -1.6180    -0.8690    -0.8200 H1         2 KMA       0.046933
     22 HD2          0.5750     0.5130     0.8870 HC         2 KMA       0.028265
     23 HD1         -0.7320    -0.4870     1.5550 HC         2 KMA       0.028265
     24 HG2          0.0000    -2.4590     0.2480 HC         2 KMA       0.026784
     25 HG1          1.2400    -1.8860     1.3780 HC         2 KMA       0.026784
     26 HB2          1.1860    -1.4370    -1.6910 HC         2 KMA       0.028694
     27 HB1          2.1800    -2.6010    -0.8010 HC         2 KMA       0.028694
     28 HA           3.6020    -0.8070    -1.4360 H1         2 KMA       0.054207
     29 H            2.0150     0.8780    -1.7900 H          2 KMA       0.119072
     30 HW1          3.2360     1.4470    -0.8030 H          2 KMA       0.119072
     31 HW2          4.6120    -1.1560     0.6930 HA         2 KMA       0.106031
@<TRIPOS>BOND
     1     1     2 1   
     2     1    29 1   
     3     1    30 1   
     4     2     3 1   
     5     2     5 1   
     6     2    28 1   
     7     3     4 2   
     8     3    31 1   
     9     5     6 1   
    10     5    26 1   
    11     5    27 1   
    12     6     7 1   
    13     6    24 1   
    14     6    25 1   
    15     7     8 1   
    16     7    22 1   
    17     7    23 1   
    18     8     9 1   
    19     8    20 1   
    20     8    21 1   
    21     9    10 1   
    22     9    16 1   
    23    10    11 2   
    24    10    12 1   
    25    12    13 1   
    26    12    14 1   
    27    12    15 1   
    28    16    17 1   
    29    16    18 1   
    30    16    19 1   
@<TRIPOS>SUBSTRUCTURE
     1 KMA         1 TEMP              0 ****  ****    0 ROOT
