@<TRIPOS>MOLECULE
molecules/substructure/C_AF_546.pdb
 122 128 0 0 0
SMALL
GASTEIGER

@<TRIPOS>ATOM
      1 N          17.4260   -1.4410   -0.3290 N.3     2  5462       -0.2445
      2 CA         16.1690   -1.2480    0.3820 C.3     2  5462        0.0966
      3 C          16.4820   -0.9500    1.8180 C.2     2  5462        0.2185
      4 O          15.6230   -1.0480    2.6810 O.2     2  5462       -0.2872
      5 CB         15.3810   -0.1000   -0.2680 C.3     2  5462        0.0184
      6 SG         13.6920    0.0540    0.4270 S.3     2  5462       -0.1454
      7 CD         12.8890   -1.1320   -0.7160 C.3     2  5462        0.0932
      8 CE1        12.5710   -0.4770   -2.0830 C.3     2  5462        0.0477
      9 CE2        11.5440   -1.5120   -0.1860 C.2     2  5462        0.2682
     10 CZ1        11.0820   -0.5270   -2.1650 C.2     2  5462        0.2566
     11 OZ2        11.3610   -2.0050    0.9580 O.2     2  5462       -0.2710
     12 NZ3        10.4860   -1.2070   -1.0810 N.am    2  5462       -0.0624
     13 OH1        10.4130    0.0100   -3.0850 O.2     2  5462       -0.2721
     14 OH2         9.1410   -1.1170   -0.7740 O.3     2  5462       -0.3373
     15 CT          8.4670   -2.0700   -0.0030 C.2     2  5462        0.3315
     16 CI1         7.0480   -1.8170    0.4070 C.3     2  5462        0.0470
     17 OI2         9.0080   -3.1730    0.2720 O.2     2  5462       -0.2487
     18 CK          6.9160   -0.4950    1.1720 C.3     2  5462       -0.0429
     19 CL          5.4520   -0.2180    1.5360 C.3     2  5462       -0.0511
     20 CM          5.3040    1.1280    2.2610 C.3     2  5462       -0.0374
     21 CN          3.8400    1.4260    2.6120 C.3     2  5462        0.0116
     22 NX          3.0330    1.5720    1.4000 N.am    2  5462       -0.3146
     23 CO          1.6650    1.1480    1.3290 C.2     2  5462        0.2232
     24 CP1         0.9510    1.1480    0.0140 C.3     2  5462        0.0749
     25 OP2         1.0540    0.7830    2.3700 O.2     2  5462       -0.2749
     26 SR          0.2840    2.8080   -0.3630 S.3     2  5462       -0.1129
     27 CS         -1.2590    2.5700    0.5440 C.ar    2  5462        0.0470
     28 C28        -2.3210    1.8670   -0.0510 C.ar    2  5462        0.0644
     29 C29        -1.3980    3.0730    1.8480 C.ar    2  5462        0.0748
     30 C30        -3.4890    1.5900    0.6850 C.ar    2  5462        0.0183
     31 Cl31       -2.1690    1.2760   -1.7140 Cl31    2  5462       -0.0817
     32 Cl32       -0.0890    4.0110    2.5750 Cl32    2  5462       -0.0808
     33 C33        -2.5810    2.8450    2.5730 C.ar    2  5462        0.0749
     34 C34        -3.6280    2.0760    2.0100 C.ar    2  5462        0.0877
     35 C35        -4.5010    0.6670    0.0960 C.2     2  5462        0.0058
     36 Cl36       -2.7520    3.5740    4.1780 Cl36    2  5462       -0.0811
     37 C37        -4.8460    1.7640    2.8040 C.2     2  5462        0.3389
     38 C38        -4.3750   -0.6820    0.2410 C.ar    2  5462        0.0280
     39 C39        -5.6200    1.2380   -0.7130 C.ar    2  5462        0.0280
     40 O40        -6.1010    1.7770    2.2040 O.3     2  5462       -0.4771
     41 O41        -4.7540    1.4850    4.0280 O.2     2  5462       -0.2451
     42 C42        -3.3210   -1.2510    0.9850 C.ar    2  5462       -0.0449
     43 C43        -5.3030   -1.5460   -0.3800 C.ar    2  5462        0.1621
     44 C44        -6.5480    0.3620   -1.2870 C.ar    2  5462        0.1618
     45 C45        -5.7810    2.6200   -0.8860 C.ar    2  5462       -0.0452
     46 C46        -3.1650   -2.6410    1.0960 C.ar    2  5462       -0.0169
     47 C47        -5.1800   -2.9420   -0.2600 C.ar    2  5462        0.1444
     48 O48        -6.3680   -1.0120   -1.1160 O.3     2  5462       -0.4509
     49 C49        -7.6320    0.8530   -2.0390 C.ar    2  5462        0.1403
     50 C50        -6.8620    3.1420   -1.6180 C.ar    2  5462       -0.0210
     51 C51        -4.1510   -3.4880    0.5380 C.ar    2  5462        0.0899
     52 C52        -1.9780   -3.2170    1.8690 C.3     2  5462       -0.0144
     53 S53        -6.3600   -3.9850   -1.0850 S.3     2  5462       -0.0456
     54 C54        -7.7440    2.2480   -2.2710 C.ar    2  5462        0.0588
     55 S55        -8.8580   -0.2770   -2.6570 S.3     2  5462       -0.0459
     56 C56        -7.0210    4.6490   -1.7960 C.3     2  5462       -0.0150
     57 N57        -4.1320   -4.7710    0.7680 N.2     2  5462       -0.2756
     58 C58        -1.8320   -4.7340    1.6230 C.3     2  5462       -0.0216
     59 C59        -0.6510   -2.5260    1.5050 C.3     2  5462       -0.0583
     60 O60        -7.7910   -4.0040   -0.2060 O.co2   2  5462       -0.7200
     61 O61        -6.6250   -3.4510   -2.4660 O.2     2  5462       -0.1801
     62 O62        -5.8440   -5.3910   -1.2210 O.2     2  5462       -0.1801
     63 N63        -8.7220    2.7600   -3.1990 N.pl3   2  5462       -0.3370
     64 O64        -8.5260   -0.6340   -4.2640 O.co2   2  5462       -0.7200
     65 O65        -8.8650   -1.5500   -1.8580 O.2     2  5462       -0.1801
     66 O66       -10.2250    0.3380   -2.5480 O.2     2  5462       -0.1801
     67 C67        -8.4650    5.0040   -2.2010 C.3     2  5462       -0.0256
     68 C68        -6.6620    5.4420   -0.5230 C.3     2  5462       -0.0583
     69 C69        -3.1960   -5.4520    1.6660 C.3     2  5462        0.0575
     70 C70        -8.9580    4.1910   -3.4180 C.3     2  5462        0.0271
     71 C71        -3.0310   -6.9030    1.1870 C.3     2  5462       -0.0400
     72 C72        -3.7780   -5.4570    3.0930 C.3     2  5462       -0.0400
     73 C73        -8.2340    4.6280   -4.7060 C.3     2  5462       -0.0440
     74 C74       -10.4710    4.4210   -3.5910 C.3     2  5462       -0.0440
     75 HA         15.5820   -2.1930    0.3330 HA      2  5462        0.0565
     76 H1         17.2180   -1.9010   -1.2440 H1      2  5462        0.1414
     77 H401       -6.9360    1.5620    2.7350 H       2  5462        0.2954
     78 HP11        1.6690    0.8710   -0.7860 HP11    2  5462        0.0474
     79 HP12        0.1470    0.3810    0.0160 HP12    2  5462        0.0474
     80 HX          3.4350    2.0850    0.5840 HX      2  5462        0.1487
     81 HN1         3.7890    2.3710    3.1940 HN1     2  5462        0.0462
     82 HN2         3.4440    0.6060    3.2510 HN2     2  5462        0.0462
     83 HM1         5.8960    1.1050    3.2020 HM1     2  5462        0.0280
     84 HM2         5.7020    1.9480    1.6250 HM2     2  5462        0.0280
     85 HL1         4.8440   -0.2050    0.6050 HL1     2  5462        0.0266
     86 HL2         5.0740   -1.0330    2.1920 HL2     2  5462        0.0266
     87 HK1         7.5270   -0.5450    2.1010 HK1     2  5462        0.0270
     88 HK2         7.2990    0.3380    0.5420 HK2     2  5462        0.0270
     89 HI11        6.4200   -1.7860   -0.5100 HI11    2  5462        0.0378
     90 HI12        6.6880   -2.6530    1.0470 HI12    2  5462        0.0378
     91 HE11       13.0130   -1.0700   -2.9120 HE11    2  5462        0.0375
     92 HE12       12.9190    0.5760   -2.1430 HE12    2  5462        0.0375
     93 HD         13.5030   -2.0480   -0.8480 HD      2  5462        0.0513
     94 HB1        15.3250   -0.2530   -1.3670 HB1     2  5462        0.0396
     95 HB2        15.9150    0.8600   -0.1000 HB2     2  5462        0.0396
     96 H421       -2.6080   -0.6170    1.4920 H421    2  5462        0.0628
     97 H711       -2.6420   -6.9270    0.1460 H711    2  5462        0.0253
     98 H712       -4.0080   -7.4320    1.1980 H712    2  5462        0.0253
     99 H713       -2.3210   -7.4540    1.8430 H713    2  5462        0.0253
    100 H721       -4.0030   -4.4260    3.4360 H721    2  5462        0.0253
    101 H722       -4.7290   -6.0320    3.1190 H722    2  5462        0.0253
    102 H723       -3.0650   -5.9230    3.8070 H723    2  5462        0.0253
    103 H581       -1.1420   -5.1730    2.3790 H581    2  5462        0.0294
    104 H582       -1.3770   -4.8920    0.6190 H582    2  5462        0.0294
    105 H521       -2.1590   -3.0500    2.9530 H521    2  5462        0.0348
    106 H591        0.2070   -3.0770    1.9470 H591    2  5462        0.0236
    107 H592       -0.5190   -2.4880    0.4020 H592    2  5462        0.0236
    108 H593       -0.6120   -1.4950    1.9120 H593    2  5462        0.0236
    109 H451       -5.0580    3.2910   -0.4490 H451    2  5462        0.0628
    110 H631       -9.1290    2.1150   -3.9110 H631    2  5462        0.1466
    111 H731       -7.1530    4.3800   -4.6620 H731    2  5462        0.0250
    112 H732       -8.6580    4.1010   -5.5880 H732    2  5462        0.0250
    113 H733       -8.3430    5.7230   -4.8660 H733    2  5462        0.0250
    114 H741      -10.8550    3.8610   -4.4700 H741    2  5462        0.0250
    115 H742      -11.0220    4.0660   -2.6930 H742    2  5462        0.0250
    116 H743      -10.6890    5.5010   -3.7370 H743    2  5462        0.0250
    117 H671       -8.5370    6.0920   -2.4240 H671    2  5462        0.0291
    118 H672       -9.1340    4.8000   -1.3330 H672    2  5462        0.0291
    119 H561       -6.3270    4.9800   -2.5980 H561    2  5462        0.0347
    120 H681       -7.1740    5.0110    0.3650 H681    2  5462        0.0236
    121 H682       -5.5660    5.4450   -0.3530 H682    2  5462        0.0236
    122 H683       -6.9670    6.5060   -0.6270 H683    2  5462        0.0236
@<TRIPOS>UNITY_ATOM_ATTR
60 1
charge -1
64 1
charge -1
@<TRIPOS>BOND
     1     1     2    1
     2     1    76    1
     3     2     3    1
     4     2     5    1
     5     2    75    1
     6     3     4    2
     7     5     6    1
     8     5    94    1
     9     5    95    1
    10     6     7    1
    11     7     8    1
    12     7     9    1
    13     7    93    1
    14     8    10    1
    15     8    91    1
    16     8    92    1
    17     9    11    2
    18     9    12   am
    19    10    12   am
    20    10    13    2
    21    12    14    1
    22    14    15    1
    23    15    16    1
    24    15    17    2
    25    16    18    1
    26    16    89    1
    27    16    90    1
    28    18    19    1
    29    18    87    1
    30    18    88    1
    31    19    20    1
    32    19    85    1
    33    19    86    1
    34    20    21    1
    35    20    83    1
    36    20    84    1
    37    21    22    1
    38    21    81    1
    39    21    82    1
    40    22    23   am
    41    22    80    1
    42    23    24    1
    43    23    25    2
    44    24    26    1
    45    24    78    1
    46    24    79    1
    47    26    27    1
    48    27    28   ar
    49    27    29   ar
    50    28    30   ar
    51    28    31    1
    52    29    32    1
    53    29    33   ar
    54    30    34   ar
    55    30    35    1
    56    33    34   ar
    57    33    36    1
    58    34    37    1
    59    35    38    2
    60    35    39    1
    61    37    40    1
    62    37    41    2
    63    38    42   ar
    64    38    43   ar
    65    39    44   ar
    66    39    45   ar
    67    40    77    1
    68    42    46   ar
    69    42    96    1
    70    43    47   ar
    71    43    48    1
    72    44    48    1
    73    44    49   ar
    74    45    50   ar
    75    45   109    1
    76    46    51   ar
    77    46    52    1
    78    47    51   ar
    79    47    53    1
    80    49    54   ar
    81    49    55    1
    82    50    54   ar
    83    50    56    1
    84    51    57    2
    85    52    58    1
    86    52    59    1
    87    52   105    1
    88    53    60    1
    89    53    61    2
    90    53    62    2
    91    54    63    1
    92    55    64    1
    93    55    65    2
    94    55    66    2
    95    56    67    1
    96    56    68    1
    97    56   119    1
    98    57    69    1
    99    58    69    1
   100    58   103    1
   101    58   104    1
   102    59   106    1
   103    59   107    1
   104    59   108    1
   105    63    70    1
   106    63   110    1
   107    67    70    1
   108    67   117    1
   109    67   118    1
   110    68   120    1
   111    68   121    1
   112    68   122    1
   113    69    71    1
   114    69    72    1
   115    70    73    1
   116    70    74    1
   117    71    97    1
   118    71    98    1
   119    71    99    1
   120    72   100    1
   121    72   101    1
   122    72   102    1
   123    73   111    1
   124    73   112    1
   125    73   113    1
   126    74   114    1
   127    74   115    1
   128    74   116    1
