@<TRIPOS>MOLECULE
../molecules/substructure/C_AF546_rn_H_3D.pdb
  124   130     1     0     0
SMALL
No Charge or Current Charge


@<TRIPOS>ATOM
      1 N           14.6750    -0.7950     4.1660 n8         2 546      -0.320900
      2 CA          14.4450    -0.7120     2.7200 c3         2 546       0.070000
      3 C           14.8670     0.6450     2.2260 c          2 546       0.137700
      4 O           14.3590     1.6600     2.6780 o          2 546      -0.299400
      5 CB          12.9710    -0.9670     2.3550 c3         2 546       0.016200
      6 SG          12.4700    -2.6880     2.7500 ss         2 546      -0.145500
      7 CD          10.9540    -2.7820     1.7070 c5         2 546       0.093200
      8 CE1         11.2770    -2.8250     0.1990 c5         2 546       0.047700
      9 CE2         10.0770    -1.5770     1.8560 c          2 546       0.268200
     10 CZ1         10.6210    -1.5910    -0.3380 c          2 546       0.256600
     11 OZ2          9.6110    -1.1750     2.9520 o          2 546      -0.271000
     12 NZ3          9.8360    -0.9110     0.6360 n          2 546      -0.062400
     13 OH1         10.7880    -1.1750    -1.5140 o          2 546      -0.272100
     14 OH2          9.4020     0.3990     0.5720 os         2 546      -0.337300
     15 CT           8.8120     0.9630    -0.5680 c          2 546       0.331500
     16 CI1          8.5080     2.4310    -0.5880 c3         2 546       0.047000
     17 OI2          8.5480     0.2600    -1.5740 o          2 546      -0.248700
     18 CK           7.0000     2.7210    -0.5210 c3         2 546      -0.042900
     19 C19          6.2470     2.2650    -1.7850 c3         2 546      -0.051100
     20 C20          4.8540     2.9020    -1.9050 c3         2 546      -0.037400
     21 C21          3.9060     2.5160    -0.7620 c3         2 546       0.011600
     22 N22          3.6890     1.0700    -0.7080 ns         2 546      -0.314600
     23 C23          3.1210     0.4670     0.4590 c          2 546       0.223200
     24 C24          1.8200    -0.2640     0.3600 c3         2 546       0.074900
     25 O25          3.6450     0.6650     1.5880 o          2 546      -0.274900
     26 S26          0.5240     1.0130     0.3360 ss         2 546      -0.112900
     27 C27         -0.6740     0.1610    -0.7130 ca         2 546       0.047000
     28 C28         -1.9040    -0.2130    -0.1470 ca         2 546       0.064400
     29 C29         -0.5110     0.1380    -2.1120 ca         2 546       0.074800
     30 C30         -3.0350    -0.3630    -0.9770 ca         2 546       0.018300
     31 Cl31        -2.0820    -0.2800     1.6140 cl         2 546      -0.081700
     32 Cl32         0.9890     0.6970    -2.8530 cl         2 546      -0.080800
     33 C33         -1.5800    -0.2530    -2.9350 ca         2 546       0.074900
     34 C34         -2.8660    -0.4380    -2.3810 ca         2 546       0.087700
     35 C35         -4.3960    -0.2210    -0.3750 cc         2 546       0.005800
     36 Cl36        -1.3620    -0.2980    -4.6910 cl         2 546      -0.081100
     37 C37         -4.0250    -0.6510    -3.2760 c          2 546       0.338900
     38 C38         -4.8030     0.9840     0.1380 ca         2 546       0.028000
     39 C39         -5.3260    -1.3950    -0.3520 ca         2 546       0.028000
     40 O40         -4.0350    -1.7340    -4.1390 oh         2 546      -0.477100
     41 O41         -4.9950     0.1550    -3.2590 o          2 546      -0.245100
     42 C42         -3.9690     2.1280     0.1140 ca         2 546      -0.044900
     43 C43         -6.0850     1.1090     0.7130 ca         2 546       0.162100
     44 C44         -6.6160    -1.2230     0.1670 ca         2 546       0.161800
     45 C45         -4.9460    -2.6530    -0.8450 ca         2 546      -0.045200
     46 C46         -4.3490     3.3430     0.7070 ca         2 546      -0.016900
     47 C47         -6.4920     2.3140     1.3170 ca         2 546       0.144400
     48 O48         -6.9660     0.0210     0.6960 os         2 546      -0.450900
     49 C49         -7.5380    -2.2890     0.1690 ca         2 546       0.140300
     50 C50         -5.8470    -3.7300    -0.8570 ca         2 546      -0.021000
     51 C51         -5.6080     3.4200     1.3540 ca         2 546       0.089900
     52 C52         -3.3690     4.5180     0.7640 c6         2 546      -0.014400
     53 S53         -8.1100     2.3850     2.0540 s6         2 546      -0.045600
     54 C54         -7.1370    -3.5590    -0.3110 ca         2 546       0.058800
     55 S55         -9.1970    -2.0290     0.7550 s6         2 546      -0.045900
     56 C56         -5.3880    -5.0590    -1.4410 c6         2 546      -0.015000
     57 N57         -5.9620     4.5030     1.9850 n2         2 546      -0.275600
     58 C58         -4.1120     5.8370     1.0470 c6         2 546      -0.021600
     59 C59         -2.5250     4.6850    -0.5160 c3         2 546      -0.058300
     60 O60         -8.3110     1.0580     3.0680 o          2 546      -0.720000
     61 O61         -8.3080     3.6310     2.8690 o          2 546      -0.180100
     62 O62         -9.1480     2.3510     0.9700 o          2 546      -0.180100
     63 N63         -8.0050    -4.7020    -0.1970 nu         2 546      -0.337000
     64 O64         -9.3280    -2.6130     2.3260 o          2 546      -0.720000
     65 O65        -10.1740    -2.7520    -0.1320 o          2 546      -0.180100
     66 O66         -9.5550    -0.5700     0.7460 o          2 546      -0.180100
     67 C67         -6.3250    -6.2460    -1.0960 c6         2 546      -0.025600
     68 C68         -5.1210    -4.9440    -2.9550 c3         2 546      -0.058300
     69 C69         -5.1300     5.6910     2.1970 c6         2 546       0.057500
     70 C70         -7.8320    -5.8890    -1.0360 c6         2 546       0.027100
     71 C71         -4.4210     5.5630     3.5610 c3         2 546      -0.040000
     72 C72         -6.0480     6.9240     2.2280 c3         2 546      -0.040000
     73 C73         -8.4140    -5.6020    -2.4340 c3         2 546      -0.044000
     74 C74         -8.5970    -7.0830    -0.4180 c3         2 546      -0.044000
     75 HA          15.0730    -1.4750     2.2110 h1         2 546       0.054200
     76 H           14.5030    -1.7750     4.4830 hn         2 546       0.118900
     77 H401        -4.8090    -1.8820    -4.7750 ho         2 546       0.295400
     78 H241         1.6850    -0.9270     1.2400 h1         2 546       0.047400
     79 H242         1.8060    -0.8850    -0.5600 h1         2 546       0.047400
     80 H221         3.5920     0.5590    -1.6190 hn         2 546       0.148700
     81 H211         2.9270     3.0180    -0.9400 h1         2 546       0.046200
     82 H212         4.3010     2.8860     0.2070 h1         2 546       0.046200
     83 H201         4.4000     2.5880    -2.8720 hc         2 546       0.028000
     84 H202         4.9570     4.0080    -1.9330 hc         2 546       0.028000
     85 H191         6.8260     2.5490    -2.6890 hc         2 546       0.026600
     86 H192         6.1490     1.1580    -1.7840 hc         2 546       0.026600
     87 HK1          6.8740     3.8170    -0.3910 hc         2 546       0.027000
     88 HK2          6.5750     2.2190     0.3750 hc         2 546       0.027000
     89 HI11         9.0000     2.9090     0.2840 hc         2 546       0.037800
     90 HI12         8.9500     2.8820    -1.5040 hc         2 546       0.037800
     91 HE11        12.3700    -2.8130    -0.0130 hc         2 546       0.037500
     92 HE12        10.8220    -3.7220    -0.2750 hc         2 546       0.037500
     93 HD          10.3790    -3.6880     1.9950 h1         2 546       0.051300
     94 HB1         12.8410    -0.7830     1.2650 h1         2 546       0.039600
     95 HB2         12.3150    -0.2580     2.9070 h1         2 546       0.039600
     96 H421        -3.0070     2.0850    -0.3610 ha         2 546       0.062800
     97 H711        -5.1750     5.4240     4.3680 hc         2 546       0.025300
     98 H712        -3.7350     4.6890     3.5930 hc         2 546       0.025300
     99 H713        -3.8400     6.4870     3.7970 hc         2 546       0.025300
    100 H721        -6.7770     6.8470     3.0630 hc         2 546       0.025300
    101 H722        -6.6160     7.0060     1.2790 hc         2 546       0.025300
    102 H723        -5.4520     7.8540     2.3640 hc         2 546       0.025300
    103 H581        -4.6520     6.1450     0.1200 hc         2 546       0.029400
    104 H582        -3.3780     6.6420     1.2850 hc         2 546       0.029400
    105 H521        -2.6600     4.3270     1.5980 hc         2 546       0.034800
    106 H591        -1.7660     3.8810    -0.6080 hc         2 546       0.023600
    107 H592        -3.1730     4.6930    -1.4180 hc         2 546       0.023600
    108 H593        -1.9580     5.6420    -0.4790 hc         2 546       0.023600
    109 H451        -3.9450    -2.8070    -1.2300 ha         2 546       0.062800
    110 H631        -8.7230    -4.7240     0.5620 hn         2 546       0.146600
    111 H731        -9.5240    -5.5560    -2.3900 hc         2 546       0.025000
    112 H732        -8.0800    -4.6160    -2.8130 hc         2 546       0.025000
    113 H733        -8.1290    -6.3990    -3.1610 hc         2 546       0.025000
    114 H741        -8.4780    -7.9910    -1.0480 hc         2 546       0.025000
    115 H742        -9.6810    -6.8560    -0.3330 hc         2 546       0.025000
    116 H743        -8.2120    -7.3090     0.6000 hc         2 546       0.025000
    117 H671        -6.0170    -6.6120    -0.0870 hc         2 546       0.029100
    118 H672        -6.1540    -7.0930    -1.7910 hc         2 546       0.029100
    119 H561        -4.4030    -5.2990    -0.9780 hc         2 546       0.034700
    120 H681        -5.9930    -4.5400    -3.5000 hc         2 546       0.023600
    121 H682        -4.2620    -4.2690    -3.1390 hc         2 546       0.023600
    122 H683        -4.8560    -5.9330    -3.3790 hc         2 546       0.023600
    123 HW1         13.9950    -0.1780     4.6670 hn         2 546       0.118900
    124 HW2         15.6270     0.7320     1.4480 h4         2 546       0.104300
@<TRIPOS>BOND
     1     1     2 1   
     2     1    76 1   
     3     1   123 1   
     4     2     3 1   
     5     2     5 1   
     6     2    75 1   
     7     3     4 2   
     8     3   124 1   
     9     5     6 1   
    10     5    94 1   
    11     5    95 1   
    12     6     7 1   
    13     7     8 1   
    14     7     9 1   
    15     7    93 1   
    16     8    10 1   
    17     8    91 1   
    18     8    92 1   
    19     9    11 2   
    20     9    12 1   
    21    10    12 1   
    22    10    13 2   
    23    12    14 1   
    24    14    15 1   
    25    15    16 1   
    26    15    17 2   
    27    16    18 1   
    28    16    89 1   
    29    16    90 1   
    30    18    19 1   
    31    18    87 1   
    32    18    88 1   
    33    19    20 1   
    34    19    85 1   
    35    19    86 1   
    36    20    21 1   
    37    20    83 1   
    38    20    84 1   
    39    21    22 1   
    40    21    81 1   
    41    21    82 1   
    42    22    23 1   
    43    22    80 1   
    44    23    24 1   
    45    23    25 2   
    46    24    26 1   
    47    24    78 1   
    48    24    79 1   
    49    26    27 1   
    50    27    28 ar  
    51    27    29 ar  
    52    28    30 ar  
    53    28    31 1   
    54    29    32 1   
    55    29    33 ar  
    56    30    34 ar  
    57    30    35 1   
    58    33    34 ar  
    59    33    36 1   
    60    34    37 1   
    61    35    38 2   
    62    35    39 1   
    63    37    40 1   
    64    37    41 2   
    65    38    42 ar  
    66    38    43 ar  
    67    39    44 ar  
    68    39    45 ar  
    69    40    77 1   
    70    42    46 ar  
    71    42    96 1   
    72    43    47 ar  
    73    43    48 1   
    74    44    48 1   
    75    44    49 ar  
    76    45    50 ar  
    77    45   109 1   
    78    46    51 ar  
    79    46    52 1   
    80    47    51 ar  
    81    47    53 1   
    82    49    54 ar  
    83    49    55 1   
    84    50    54 ar  
    85    50    56 1   
    86    51    57 2   
    87    52    58 1   
    88    52    59 1   
    89    52   105 1   
    90    53    60 1   
    91    53    61 1   
    92    53    62 1   
    93    54    63 1   
    94    55    64 1   
    95    55    65 1   
    96    55    66 1   
    97    56    67 1   
    98    56    68 1   
    99    56   119 1   
   100    57    69 1   
   101    58    69 1   
   102    58   103 1   
   103    58   104 1   
   104    59   106 1   
   105    59   107 1   
   106    59   108 1   
   107    63    70 1   
   108    63   110 1   
   109    67    70 1   
   110    67   117 1   
   111    67   118 1   
   112    68   120 1   
   113    68   121 1   
   114    68   122 1   
   115    69    71 1   
   116    69    72 1   
   117    70    73 1   
   118    70    74 1   
   119    71    97 1   
   120    71    98 1   
   121    71    99 1   
   122    72   100 1   
   123    72   101 1   
   124    72   102 1   
   125    73   111 1   
   126    73   112 1   
   127    73   113 1   
   128    74   114 1   
   129    74   115 1   
   130    74   116 1   
@<TRIPOS>SUBSTRUCTURE
     1 546         1 TEMP              0 ****  ****    0 ROOT
