@<TRIPOS>MOLECULE
MOL
   33    32     1     0     0
SMALL
gas


@<TRIPOS>ATOM
      1 N1           4.6060    -0.4470    -1.0570 NT         1 MOL      -0.321752
      2 C1           3.2120    -0.8340    -0.8350 CT         1 MOL       0.060484
      3 C2           3.1590    -1.9660     0.1560 C          1 MOL       0.136167
      4 O1           3.5830    -1.8220     1.2920 O          1 MOL      -0.301670
      5 C3           2.3690     0.3740    -0.3680 CT         1 MOL      -0.030919
      6 C4           0.8660     0.0530    -0.3290 CT         1 MOL      -0.046437
      7 C5           0.0500     1.2630     0.1500 CT         1 MOL      -0.013570
      8 C6          -1.4470     1.2460    -0.2630 CT         1 MOL      -0.033473
      9 N2          -2.3400     0.2290     0.3870 N3         1 MOL       0.247576
     10 C7          -3.7430     0.6920     0.2340 CT         1 MOL      -0.044314
     11 H1          -3.9090     1.6580     0.7620 HP         1 MOL       0.077752
     12 H2          -3.9990     0.8400    -0.8400 HP         1 MOL       0.077752
     13 H3          -4.4650    -0.0430     0.6570 HP         1 MOL       0.077752
     14 C8          -2.2330    -1.0920    -0.2800 CT         1 MOL      -0.044314
     15 H4          -3.0050    -1.7970     0.1020 HP         1 MOL       0.077752
     16 H5          -1.2590    -1.5780    -0.0930 HP         1 MOL       0.077752
     17 H6          -2.3730    -1.0010    -1.3800 HP         1 MOL       0.077752
     18 C9          -2.0630     0.0800     1.8360 CT         1 MOL      -0.044314
     19 H7          -1.0800    -0.4070     2.0150 HP         1 MOL       0.077752
     20 H8          -2.8290    -0.5610     2.3270 HP         1 MOL       0.077752
     21 H9          -2.0660     1.0700     2.3440 HP         1 MOL       0.077752
     22 H10         -1.5080     1.1660    -1.3730 HP         1 MOL       0.081487
     23 H11         -1.8180     2.2710    -0.0280 HP         1 MOL       0.081487
     24 H12          0.1680     1.3960     1.2460 HC         1 MOL       0.032062
     25 H13          0.4850     2.1780    -0.3090 HC         1 MOL       0.032062
     26 H14          0.7120    -0.7870     0.3780 HC         1 MOL       0.026938
     27 H15          0.5340    -0.2520    -1.3450 HC         1 MOL       0.026938
     28 H16          2.5350     1.2160    -1.0750 HC         1 MOL       0.028698
     29 H17          2.7070     0.7040     0.6400 HC         1 MOL       0.028698
     30 H18          2.7980    -1.2050    -1.8000 H1         1 MOL       0.054210
     31 H19          4.6410     0.2390    -1.8460 H          1 MOL       0.119073
     32 H20          4.9730     0.0400    -0.2060 H          1 MOL       0.119073
     33 H21          2.7390    -2.9230    -0.1390 HA         1 MOL       0.106038
@<TRIPOS>BOND
     1     1     2 1   
     2     1    31 1   
     3     1    32 1   
     4     2     3 1   
     5     2     5 1   
     6     2    30 1   
     7     3     4 2   
     8     3    33 1   
     9     5     6 1   
    10     5    28 1   
    11     5    29 1   
    12     6     7 1   
    13     6    26 1   
    14     6    27 1   
    15     7     8 1   
    16     7    24 1   
    17     7    25 1   
    18     8     9 1   
    19     8    22 1   
    20     8    23 1   
    21     9    10 1   
    22     9    14 1   
    23     9    18 1   
    24    10    11 1   
    25    10    12 1   
    26    10    13 1   
    27    14    15 1   
    28    14    16 1   
    29    14    17 1   
    30    18    19 1   
    31    18    20 1   
    32    18    21 1   
@<TRIPOS>SUBSTRUCTURE
     1 MOL         1 TEMP              0 ****  ****    0 ROOT
