@<TRIPOS>MOLECULE
Lysine_1M_rn_H_3D.pdb
 27 26 0 0 0
SMALL
GASTEIGER

@<TRIPOS>ATOM
      1 N          -4.1280   -0.7000    0.0660 N.3     2  K1M2       -0.3215
      2 CA         -2.8540   -0.0640    0.4030 C.3     2  K1M2        0.0609
      3 C          -2.9160    1.3920    0.0240 C.2     2  K1M2        0.1369
      4 O          -2.7600    2.2590    0.8690 O.2     2  K1M2       -0.2994
      5 CB         -1.7050   -0.7680   -0.3450 C.3     2  K1M2       -0.0310
      6 CG         -0.3240   -0.2640    0.1030 C.3     2  K1M2       -0.0465
      7 CD          0.7990   -1.0120   -0.6320 C.3     2  K1M2       -0.0125
      8 CE          2.1980   -0.6410   -0.1120 C.3     2  K1M2       -0.0339
      9 NZ          2.5720    0.7370   -0.4710 N.4     2  K1M2        0.2248
     10 CH          3.9630    1.0090   -0.1010 C.3     2  K1M2       -0.0449
     11 HH3         4.6550    0.3370   -0.6540 H       2  K1M2        0.0777
     12 HH2         4.2210    2.0590   -0.3580 H       2  K1M2        0.0777
     13 HH1         4.1120    0.8730    0.9930 H       2  K1M2        0.0777
     14 HZ2         1.9620    1.4170    0.0370 H       2  K1M2        0.2011
     15 HZ1         2.4670    0.8790   -1.5030 H       2  K1M2        0.2011
     16 HE2         2.2320   -0.7730    0.9930 H       2  K1M2        0.0814
     17 HE1         2.9250   -1.3560   -0.5610 H       2  K1M2        0.0814
     18 HD2         0.6590   -2.1060   -0.4850 H       2  K1M2        0.0317
     19 HD1         0.7370   -0.8080   -1.7230 H       2  K1M2        0.0317
     20 HG2        -0.2460    0.8220   -0.1140 H       2  K1M2        0.0268
     21 HG1        -0.2150   -0.4170    1.1990 H       2  K1M2        0.0268
     22 HB2        -1.8230   -0.6190   -1.4410 H       2  K1M2        0.0284
     23 HB1        -1.7640   -1.8610   -0.1440 H       2  K1M2        0.0284
     24 HA         -2.6830   -0.1570    1.5010 H       2  K1M2        0.0534
     25 H          -4.1040   -1.6890    0.4080 H       2  K1M2        0.1188
     26 H1         -4.8860   -0.2290    0.6130 H       2  K1M2        0.1188
     27 H2         -3.0970    1.6770   -1.0080 H       2  K1M2        0.1043
@<TRIPOS>UNITY_ATOM_ATTR
9 1
charge 1
@<TRIPOS>BOND
     1     1     2    1
     2     1    25    1
     3     1    26    1
     4     2     3    1
     5     2     5    1
     6     2    24    1
     7     3     4    2
     8     3    27    1
     9     5     6    1
    10     5    22    1
    11     5    23    1
    12     6     7    1
    13     6    20    1
    14     6    21    1
    15     7     8    1
    16     7    18    1
    17     7    19    1
    18     8     9    1
    19     8    16    1
    20     8    17    1
    21     9    10    1
    22     9    14    1
    23     9    15    1
    24    10    11    1
    25    10    12    1
    26    10    13    1
