../molecules/substructure/Lysine_Malonyl_rn_H_3D.pdb
 OpenBabel04252513553D

 30 29  0  0  1  0  0  0  0  0999 V2000
   -3.9810   -1.2100    0.6930 N   0  0  0  0  0  0  0  0  0  0  0  0
   -3.4830    0.1140    1.0780 C   0  0  1  0  0  0  0  0  0  0  0  0
   -3.9630    0.4530    2.4660 C   0  0  0  0  0  0  0  0  0  0  0  0
   -3.8110    1.5780    2.9140 O   0  0  0  0  0  0  0  0  0  0  0  0
   -1.9410    0.1460    1.0430 C   0  0  0  0  0  0  0  0  0  0  0  0
   -1.3770    0.0280   -0.3810 C   0  0  0  0  0  0  0  0  0  0  0  0
    0.1440    0.2200   -0.3870 C   0  0  0  0  0  0  0  0  0  0  0  0
    0.7110    0.0870   -1.8050 C   0  0  0  0  0  0  0  0  0  0  0  0
    2.1560    0.3080   -1.7990 N   0  0  0  0  0  0  0  0  0  0  0  0
    3.0860   -0.6720   -1.3180 C   0  0  0  0  0  0  0  0  0  0  0  0
    2.6760   -1.7900   -0.9000 O   0  0  0  0  0  0  0  0  0  0  0  0
    4.5490   -0.3600   -1.2710 C   0  0  0  0  0  0  0  0  0  0  0  0
    4.8610    0.4300   -0.0420 C   0  0  0  0  0  0  0  0  0  0  0  0
    4.7740    1.8160   -0.0650 O   0  5  0  0  0  0  0  0  0  0  0  0
    5.1600   -0.1590    1.0300 O   0  0  0  0  0  0  0  0  0  0  0  0
    4.8360    0.2240   -2.1720 H   0  0  0  0  0  0  0  0  0  0  0  0
    5.1400   -1.3010   -1.2760 H   0  0  0  0  0  0  0  0  0  0  0  0
    2.5230    1.2010   -2.1990 H   0  0  0  0  0  0  0  0  0  0  0  0
    0.2320    0.8450   -2.4620 H   0  0  0  0  0  0  0  0  0  0  0  0
    0.4860   -0.9190   -2.2230 H   0  0  0  0  0  0  0  0  0  0  0  0
    0.3940    1.2290    0.0080 H   0  0  0  0  0  0  0  0  0  0  0  0
    0.6120   -0.5410    0.2740 H   0  0  0  0  0  0  0  0  0  0  0  0
   -1.6110   -0.9760   -0.7950 H   0  0  0  0  0  0  0  0  0  0  0  0
   -1.8460    0.8000   -1.0300 H   0  0  0  0  0  0  0  0  0  0  0  0
   -1.5910    1.1090    1.4780 H   0  0  0  0  0  0  0  0  0  0  0  0
   -1.5380   -0.6790    1.6720 H   0  0  0  0  0  0  0  0  0  0  0  0
   -3.8900    0.8780    0.3760 H   0  0  0  0  0  0  0  0  0  0  0  0
   -3.8270   -1.3390   -0.3320 H   0  0  0  0  0  0  0  0  0  0  0  0
   -5.0210   -1.2230    0.8130 H   0  0  0  0  0  0  0  0  0  0  0  0
   -4.4620   -0.2960    3.0750 H   0  0  0  0  0  0  0  0  0  0  0  0
  1  2  1  0  0  0  0
  1 28  1  0  0  0  0
  1 29  1  0  0  0  0
  2  3  1  0  0  0  0
  2  5  1  0  0  0  0
  2 27  1  6  0  0  0
  3  4  2  0  0  0  0
  3 30  1  0  0  0  0
  5  6  1  0  0  0  0
  5 25  1  0  0  0  0
  5 26  1  0  0  0  0
  6  7  1  0  0  0  0
  6 23  1  0  0  0  0
  6 24  1  0  0  0  0
  7  8  1  0  0  0  0
  7 21  1  0  0  0  0
  7 22  1  0  0  0  0
  8  9  1  0  0  0  0
  8 19  1  0  0  0  0
  8 20  1  0  0  0  0
  9 10  1  0  0  0  0
  9 18  1  0  0  0  0
 10 11  2  0  0  0  0
 10 12  1  0  0  0  0
 12 13  1  0  0  0  0
 12 16  1  0  0  0  0
 12 17  1  0  0  0  0
 13 14  1  0  0  0  0
 13 15  2  0  0  0  0
M  CHG  1  14  -1
M  END
$$$$
