@<TRIPOS>MOLECULE

30 29 1
SMALL
USER_CHARGES
@<TRIPOS>ATOM
1	N1    -4.1836    -0.0919    -0.7957	N.3	1	noname	-0.3217
2	C1    -3.4303     1.1658    -0.7878	C.3	1	noname	0.0605
3	C2    -4.2035     2.2159    -0.0321	C.2	1	noname	0.1345
4	O1    -3.8427     3.3816    -0.0518	O.2	1	noname	-0.2997
5	C3    -2.0492     0.9680    -0.1293	C.3	1	noname	-0.0311
6	C4    -1.1160     0.0774    -0.9633	C.3	1	noname	-0.0502
7	C5     0.2904     0.0338    -0.3546	C.3	1	noname	-0.0401
8	C6     1.2193    -0.8670    -1.1766	C.3	1	noname	0.0026
9	N2     2.5644    -0.8697    -0.6043	N.3	1	noname	-0.2532
10	C7     2.8951    -1.5914     0.5901	C.2	1	noname	0.1796
11	O2     2.0199    -2.2823     1.1813	O.2	1	noname	-0.2679
12	C8     4.2728    -1.4981     1.1672	C.3	1	noname	0.0594
13	C9     4.4014    -0.2488     1.9762	C.2	1	noname	-0.0670
14	O3     4.7964     0.9361     1.3687	O.2	1	noname	-0.4787
15	O4     4.1095    -0.2552     3.2011	O.3	1	noname	-0.4787
16	H1     5.0222    -1.4892     0.3465	H	1	noname	0.0346
17	H2     4.4802    -2.3845     1.8044	H	1	noname	0.0346
18	H3     3.3204    -0.3563    -1.1113	H	1	noname	0.1309
19	H4     1.2706    -0.4840    -2.2188	H	1	noname	0.0432
20	H5     0.8240    -1.9062    -1.2132	H	1	noname	0.0432
21	H6     0.7164     1.0606    -0.3262	H	1	noname	0.0279
22	H7     0.2271    -0.3484     0.6870	H	1	noname	0.0279
23	H8    -1.5199    -0.9568    -1.0016	H	1	noname	0.0268
24	H9    -1.0539     0.4751    -2.0002	H	1	noname	0.0268
25	H10    -1.5639     1.9621    -0.0053	H	1	noname	0.0287
26	H11    -2.1805     0.5239     0.8828	H	1	noname	0.0287
27	H12    -3.2985     1.5217    -1.8357	H	1	noname	0.0541
28	H13    -3.7485    -0.7366    -1.4929	H	1	noname	0.1190
29	H14    -5.1443     0.0972    -1.1663	H	1	noname	0.1190
30	H15    -5.0974     1.9482     0.5249	H	1	noname	0.1058
@<TRIPOS>BOND
1	1	2	1
2	1	28	1
3	1	29	1
4	2	3	1
5	2	5	1
6	2	27	1
7	3	4	2
8	3	30	1
9	5	6	1
10	5	25	1
11	5	26	1
12	6	7	1
13	6	23	1
14	6	24	1
15	7	8	1
16	7	21	1
17	7	22	1
18	8	9	1
19	8	19	1
20	8	20	1
21	9	10	1
22	9	18	1
23	10	12	1
24	12	13	1
25	12	16	1
26	12	17	1
27	13	15	1
28	13	14	2
29	10	11	2
@<TRIPOS>SUBSTRUCTURE
1	noname	1
