@<TRIPOS>MOLECULE
MOL
   27    26     1     0     0
SMALL
gas


@<TRIPOS>ATOM
      1 N1          -3.9110    -0.1460     1.4870 NT         1 MOL      -0.321752
      2 C1          -2.9260     0.5290     0.6400 CT         1 MOL       0.060483
      3 C2          -3.5110     0.7490    -0.7300 C          1 MOL       0.136165
      4 O1          -3.8580    -0.1960    -1.4200 O          1 MOL      -0.301674
      5 C3          -1.6090    -0.2750     0.5750 CT         1 MOL      -0.030919
      6 C4          -0.4900     0.5020    -0.1360 CT         1 MOL      -0.046439
      7 C5           0.8170    -0.3010    -0.1470 CT         1 MOL      -0.013709
      8 C6           1.9380     0.4820    -0.8530 CT         1 MOL      -0.036584
      9 N2           3.1730    -0.3110    -0.9920 N3         1 MOL       0.237058
     10 C7           3.9020    -0.4380     0.2740 CT         1 MOL      -0.047427
     11 H1           4.0950     0.5600     0.7250 HP         1 MOL       0.077612
     12 H2           3.3420    -1.0710     0.9940 HP         1 MOL       0.077612
     13 H3           4.8840    -0.9270     0.0910 HP         1 MOL       0.077612
     14 H4           2.9540    -1.2640    -1.3670 H          1 MOL       0.197735
     15 H5           3.7980     0.1720    -1.6790 H          1 MOL       0.197735
     16 H6           1.5840     0.7630    -1.8700 HP         1 MOL       0.081349
     17 H7           2.1420     1.4300    -0.3060 HP         1 MOL       0.081349
     18 H8           1.1130    -0.5160     0.9020 HC         1 MOL       0.032060
     19 H9           0.6500    -1.2650    -0.6740 HC         1 MOL       0.032060
     20 H10         -0.7950     0.7150    -1.1840 HC         1 MOL       0.026939
     21 H11         -0.3230     1.4690     0.3870 HC         1 MOL       0.026939
     22 H12         -1.7820    -1.2430     0.0550 HC         1 MOL       0.028699
     23 H13         -1.2780    -0.5030     1.6130 HC         1 MOL       0.028699
     24 H14         -2.7130     1.5260     1.0860 H1         1 MOL       0.054212
     25 H15         -3.5490    -0.1690     2.4690 H          1 MOL       0.119074
     26 H16         -4.0200    -1.1390     1.1730 H          1 MOL       0.119074
     27 H17         -3.6260     1.7590    -1.1100 HA         1 MOL       0.106041
@<TRIPOS>BOND
     1     1     2 1   
     2     1    25 1   
     3     1    26 1   
     4     2     3 1   
     5     2     5 1   
     6     2    24 1   
     7     3     4 2   
     8     3    27 1   
     9     5     6 1   
    10     5    22 1   
    11     5    23 1   
    12     6     7 1   
    13     6    20 1   
    14     6    21 1   
    15     7     8 1   
    16     7    18 1   
    17     7    19 1   
    18     8     9 1   
    19     8    16 1   
    20     8    17 1   
    21     9    10 1   
    22     9    14 1   
    23     9    15 1   
    24    10    11 1   
    25    10    12 1   
    26    10    13 1   
@<TRIPOS>SUBSTRUCTURE
     1 MOL         1 TEMP              0 ****  ****    0 ROOT
